**WORKING_DIR /home/user1/labs/lab5/lab5_final
**TECH_FILE /home/user1/labs/lab5/lab5_final/.rc.tbl.tech
**MAP_FILE /home/user1/labs/input_files/itf/layer.map
**RCDB rcelib opamp layout
*|DESIGN opamp
*|DATE "Tue Dec 31 17:30:47 2019"
*|DSPF 1.0
*|VENDOR "HES Inc."
*|PROGRAM RCExplorer
*|VERSION 2019.06.sp1
*|DELIMITER :
*|DIVIDER /

.option spfscale=1

.SUBCKT opamp inn inp vbias vss vdd out en

*|GROUND_NET 0

*|NET 1 8.35543e-14
*|I (M31:S M31 S B 0 33.326 33.705)
*|I (M30:D M30 D B 0 32.794 33.705)
*|I (M29:S M29 S B 0 31.046 33.705)
*|I (M28:D M28 D B 0 30.514 33.705)
*|I (M54:D M54 D B 0 59.154 44.565)
*|I (M7:S M7 S B 0 28.521 23.43)
*|I (M6:D M6 D B 0 27.989 23.43)
*|I (M5:S M5 S B 0 24.461 23.43)
*|I (M4:D M4 D B 0 23.929 23.43)
*|I (M34:G M34 G B 0 54.26 38.675)
*|I (M35:G M35 G B 0 55.4 38.675)
*|I (M36:G M36 G B 0 56.54 38.675)
*|I (M37:G M37 G B 0 57.68 38.675)
*|I (M38:G M38 G B 0 58.82 38.675)
*|I (M39:G M39 G B 0 59.96 38.675)
*|I (M40:G M40 G B 0 61.1 38.675)
*|I (M41:G M41 G B 0 62.24 38.675)
*|I (M53:G M53 G B 0 75.92 38.675)
*|I (M52:G M52 G B 0 74.78 38.675)
*|I (M51:G M51 G B 0 73.64 38.675)
*|I (M43:G M43 G B 0 64.52 38.675)
*|I (M44:G M44 G B 0 65.66 38.675)
*|I (M45:G M45 G B 0 66.8 38.675)
*|I (M46:G M46 G B 0 67.94 38.675)
*|I (M47:G M47 G B 0 69.08 38.675)
*|I (M48:G M48 G B 0 70.22 38.675)
*|I (M49:G M49 G B 0 71.36 38.675)
*|I (M50:G M50 G B 0 72.5 38.675)
*|I (M42:G M42 G B 0 63.38 38.675)
*|I (C65:POS C65 POS B 0 39.54 24.355)
*|I (C66:POS C66 POS B 0 44.99 24.355)
*|I (C67:POS C67 POS B 0 50.44 24.355)
*|I (C68:POS C68 POS B 0 55.89 24.355)
*|I (C79:POS C79 POS B 0 37.575 10.025)
*|I (C80:POS C80 POS B 0 43.025 10.025)
*|I (C81:POS C81 POS B 0 61.035 24.355)
*|I (C84:POS C84 POS B 0 88.705 39.38)
*|I (C83:POS C83 POS B 0 83.255 39.38)
*|I (C69:POS C69 POS B 0 72.205 10.025)
*|I (C70:POS C70 POS B 0 77.655 10.025)
*|I (C71:POS C71 POS B 0 83.105 10.025)
*|I (C72:POS C72 POS B 0 88.555 10.025)
*|I (C73:POS C73 POS B 0 94.005 10.025)
*|I (C74:POS C74 POS B 0 72.24 24.355)
*|I (C75:POS C75 POS B 0 77.69 24.355)
*|I (C76:POS C76 POS B 0 83.14 24.355)
*|I (C77:POS C77 POS B 0 88.59 24.355)
*|I (C78:POS C78 POS B 0 94.04 24.355)
*|I (C82:POS C82 POS B 0 66.79 24.355)
*|S (1:11 24.195 21.64 )
*|S (1:77 59.42 44.565 )
*|S (1 54.26 34.7 )
*|S (1:100 55.4 34.7 )
*|S (1:102 56.54 34.7 )
*|S (1:104 57.68 34.7 )
*|S (1:106 58.82 34.7 )
*|S (1:108 59.96 34.7 )
*|S (1:110 61.1 34.7 )
*|S (1:112 62.24 34.7 )
*|S (1:114 63.38 34.7 )
*|S (1:116 64.52 34.7 )
*|S (1:118 65.66 34.7 )
*|S (1:120 66.8 34.7 )
*|S (1:122 67.94 34.7 )
*|S (1:124 69.08 34.7 )
*|S (1:126 70.22 34.7 )
*|S (1:128 71.36 34.7 )
*|S (1:130 72.5 34.7 )
*|S (1:132 73.64 34.7 )
*|S (1:134 74.78 34.7 )
*|S (1:136 75.92 34.7 )
*|S (1:155 75.62 34.91 )
*|S (1:156 54.17 34.91 )
*|S (1:159 55.58 34.91 )
*|S (1:160 56.05 34.91 )
*|S (1:161 56.52 34.91 )
*|S (1:162 56.99 34.91 )
*|S (1:164 57.93 34.91 )
*|S (1:165 58.4 34.91 )
*|S (1:166 58.87 34.91 )
*|S (1:167 59.34 34.91 )
*|S (1:168 59.81 34.91 )
*|S (1:171 61.22 34.91 )
*|S (1:172 61.69 34.91 )
*|S (1:173 62.16 34.91 )
*|S (1:176 63.57 34.91 )
*|S (1:177 64.04 34.91 )
*|S (1:178 64.51 34.91 )
*|S (1:179 64.98 34.91 )
*|S (1:181 65.92 34.91 )
*|S (1:183 66.86 34.91 )
*|S (1:184 67.33 34.91 )
*|S (1:185 67.8 34.91 )
*|S (1:188 69.21 34.91 )
*|S (1:189 69.68 34.91 )
*|S (1:190 70.15 34.91 )
*|S (1:193 71.56 34.91 )
*|S (1:194 72.03 34.91 )
*|S (1:195 72.5 34.91 )
*|S (1:196 72.97 34.91 )
*|S (1:198 73.91 34.91 )
*|S (1:200 74.85 34.91 )
*|S (1:201 75.32 34.91 )
*|S (1:303 24.195 21.47 )
*|S (1:344 28.255 21.47 )
*|S (1:345 24.195 21.64 )
*|S (1:346 28.255 21.64 )
*|S (1:347 24.195 22.15 )
*|S (1:348 28.255 22.15 )
*|S (1:349 24.195 22.66 )
*|S (1:350 28.255 22.66 )
*|S (1:351 24.19 22.725 )
*|S (1:352 28.25 22.725 )
*|S (1:355 24.19 22.915 )
*|S (1:356 28.25 22.915 )
*|S (1:357 24.195 23.17 )
*|S (1:358 28.255 23.17 )
*|S (1:359 24.19 23.435 )
*|S (1:360 28.25 23.435 )
*|S (1:361 24.195 23.68 )
*|S (1:362 28.255 23.68 )
*|S (1:363 24.19 23.955 )
*|S (1:364 28.25 23.955 )
*|S (1:365 24.195 24.19 )
*|S (1:366 28.255 24.19 )
*|S (1:367 24.19 22.725 )
*|S (1:370 24.195 24.7 )
*|S (1:371 28.255 24.7 )
*|S (1:372 24.195 25.22 )
*|S (1:373 28.255 25.22 )
*|S (1:374 24.19 24.145 )
*|S (1:375 28.25 24.145 )
*|S (1:376 24.195 25.39 )
*|S (1:377 28.255 25.39 )
*|S (1:378 30.875 29.325 )
*|S (1:379 31.065 29.325 )
*|S (1:380 31.585 29.325 )
*|S (1:381 32.105 29.325 )
*|S (1:382 30.665 29.4 )
*|S (1:386 33.06 29.515 )
*|S (1:388 30.77 29.515 )
*|S (1:389 30.78 29.915 )
*|S (1:390 33.06 29.915 )
*|S (1:391 30.78 30.385 )
*|S (1:392 33.06 30.385 )
*|S (1:393 30.78 30.855 )
*|S (1:394 33.06 30.855 )
*|S (1:395 30.78 31.325 )
*|S (1:396 33.06 31.325 )
*|S (1:397 30.78 31.795 )
*|S (1:398 33.06 31.795 )
*|S (1:399 30.78 32.265 )
*|S (1:400 33.06 32.265 )
*|S (1:401 30.78 32.735 )
*|S (1:402 33.06 32.735 )
*|S (1:403 64.982 32.81 )
*|S (1:404 78.085 32.81 )
*|S (1:405 30.78 33.205 )
*|S (1:406 33.06 33.205 )
*|S (1:407 63.727 33.31 )
*|S (1:409 77.185 33.31 )
*|S (1:413 63.917 33.31 )
*|S (1:415 65.337 33.31 )
*|S (1:416 66.047 33.31 )
*|S (1:417 77.375 33.31 )
*|S (1:418 78.085 33.31 )
*|S (1:419 78.795 33.31 )
*|S (1:420 30.78 33.675 )
*|S (1:421 33.06 33.675 )
*|S (1:422 30.78 34.145 )
*|S (1:423 33.06 34.145 )
*|S (1:424 30.78 34.615 )
*|S (1:425 33.06 34.615 )
*|S (1:426 54 34.91 )
*|S (1:429 54.17 34.91 )
*|S (1:430 54.64 34.91 )
*|S (1:431 55.11 34.91 )
*|S (1:432 55.58 34.91 )
*|S (1:433 56.05 34.91 )
*|S (1:434 56.52 34.91 )
*|S (1:435 56.99 34.91 )
*|S (1:436 57.46 34.91 )
*|S (1:437 57.93 34.91 )
*|S (1:438 58.4 34.91 )
*|S (1:439 58.87 34.91 )
*|S (1:440 59.34 34.91 )
*|S (1:441 59.81 34.91 )
*|S (1:442 60.28 34.91 )
*|S (1:443 60.75 34.91 )
*|S (1:444 61.22 34.91 )
*|S (1:445 61.69 34.91 )
*|S (1:446 62.16 34.91 )
*|S (1:447 62.63 34.91 )
*|S (1:448 63.1 34.91 )
*|S (1:449 63.57 34.91 )
*|S (1:450 64.04 34.91 )
*|S (1:453 65.45 34.91 )
*|S (1:454 65.92 34.91 )
*|S (1:455 66.39 34.91 )
*|S (1:456 66.86 34.91 )
*|S (1:457 67.33 34.91 )
*|S (1:458 67.8 34.91 )
*|S (1:459 68.27 34.91 )
*|S (1:460 68.74 34.91 )
*|S (1:461 69.21 34.91 )
*|S (1:462 69.68 34.91 )
*|S (1:463 70.15 34.91 )
*|S (1:464 70.62 34.91 )
*|S (1:465 71.09 34.91 )
*|S (1:466 71.56 34.91 )
*|S (1:467 72.03 34.91 )
*|S (1:468 72.5 34.91 )
*|S (1:469 72.97 34.91 )
*|S (1:470 73.44 34.91 )
*|S (1:471 73.91 34.91 )
*|S (1:472 74.38 34.91 )
*|S (1:473 74.85 34.91 )
*|S (1:474 75.32 34.91 )
*|S (1:475 76.01 34.91 )
*|S (1:476 30.78 35.085 )
*|S (1:477 33.06 35.085 )
*|S (1:478 64.982 35.025 )
*|S (1:479 30.78 35.555 )
*|S (1:480 33.06 35.555 )
*|S (1:481 30.78 36.025 )
*|S (1:482 33.06 36.025 )
*|S (1:483 30.78 36.495 )
*|S (1:484 33.06 36.495 )
*|S (1:485 30.78 36.965 )
*|S (1:486 33.06 36.965 )
*|S (1:487 30.78 37.495 )
*|S (1:488 33.06 37.495 )
*|S (1:489 30.78 37.665 )
*|S (1:490 33.06 37.665 )
*|S (1:491 59.305 44.56 )
*|S (1:492 77.835 44.56 )
*|S (1:493 59.42 44.565 )
*|S (1:494 78.085 44.81 )
*|S (1:495 32.295 29.325 )
*|S (1:496 33.175 29.4 )
*|S (1:497 66.237 33.31 )
*|S (1:498 76.18 34.91 )
*|S (1:499 78.985 33.31 )
*|S (1:500 24.19 22.915 )
*|S (1:501 24.19 23.435 )
*|S (1:502 24.19 23.955 )
*|S (1:503 24.19 22.725 )
*|S (1:504 28 28.055 )
*|S (1:505 28.19 28.055 )
*|S (1:506 28.25 22.725 )
*|S (1:507 28.25 22.915 )
*|S (1:508 28.25 23.435 )
*|S (1:509 28.25 23.955 )
*|S (1:510 28.71 28.055 )
*|S (1:511 29.23 28.055 )
*|S (1:512 29.42 28.055 )
*|S (1:513 30.875 29.325 )
*|S (1:514 31.065 29.325 )
*|S (1:515 31.585 27.915 )
*|S (1:516 31.445 28.055 )
*|S (1:517 31.445 29.325 )
*|S (1:521 32.105 29.325 )
*|S (1:522 32.295 29.325 )
*|S (1:523 35.44 27.155 )
*|S (1:524 35.25 28.055 )
*|S (1:525 35.44 27.345 )
*|S (1:527 35.44 28.765 )
*|S (1:528 63.727 33.31 )
*|S (1:529 63.917 33.31 )
*|S (1:530 64.627 33.31 )
*|S (1:531 65.337 33.31 )
*|S (1:532 66.047 33.31 )
*|S (1:533 66.237 33.31 )
*|S (1:534 77.185 33.31 )
*|S (1:535 77.375 33.31 )
*|S (1:536 78.085 33.31 )
*|S (1:537 78.795 33.31 )
*|S (1:538 78.985 33.31 )
*|S (1:539 24.19 24.145 )
*|S (1:540 28.25 24.145 )
*|S (1:541 35.44 28.955 )
*|S (1:542 31.585 29.515 )
*|S (1:543 24.19 22.915 )
*|S (1:544 24.19 23.435 )
*|S (1:545 24.19 23.955 )
*|S (1:547 26.235 23.295 )
*|S (1:548 26.095 23.435 )
*|S (1:550 26.375 28.055 )
*|S (1:551 28 28.055 )
*|S (1:552 28.19 28.055 )
*|S (1:553 28.25 22.725 )
*|S (1:554 28.06 23.435 )
*|S (1:555 28.25 22.915 )
*|S (1:557 28.25 23.955 )
*|S (1:558 28.71 28.055 )
*|S (1:559 29.23 28.055 )
*|S (1:560 29.42 28.055 )
*|S (1:561 35.44 27.155 )
*|S (1:562 35.44 27.345 )
*|S (1:563 35.44 28.055 )
*|S (1:564 35.44 28.765 )
*|S (1:565 63.727 33.31 )
*|S (1:566 63.917 33.31 )
*|S (1:567 64.627 33.31 )
*|S (1:568 65.337 33.31 )
*|S (1:569 66.047 33.31 )
*|S (1:570 66.237 33.31 )
*|S (1:571 77.185 33.31 )
*|S (1:572 77.375 33.31 )
*|S (1:573 78.085 33.31 )
*|S (1:574 78.795 33.31 )
*|S (1:575 78.985 33.31 )
*|S (1:576 24.19 24.145 )
*|S (1:577 28.25 24.145 )
*|S (1:578 26.235 28.195 )
*|S (1:579 35.44 28.955 )
*|S (1:580 35.44 27.155 )
*|S (1:581 35.44 27.345 )
*|S (1:582 35.44 28.055 )
*|S (1:583 35.44 28.765 )
*|S (1:584 63.727 33.31 )
*|S (1:585 63.917 33.31 )
*|S (1:586 64.627 33.31 )
*|S (1:587 65.337 33.31 )
*|S (1:588 66.047 33.31 )
*|S (1:589 66.237 33.31 )
*|S (1:590 77.185 33.31 )
*|S (1:591 77.375 33.31 )
*|S (1:592 78.085 33.31 )
*|S (1:593 78.795 33.31 )
*|S (1:594 78.985 33.31 )
*|S (1:595 35.44 28.955 )
*|S (1:596 36.395 8.445 )
*|S (1:597 38.755 8.445 )
*|S (1:598 41.845 8.445 )
*|S (1:599 44.205 8.445 )
*|S (1:600 71.025 8.445 )
*|S (1:601 73.385 8.445 )
*|S (1:602 76.475 8.445 )
*|S (1:603 78.835 8.445 )
*|S (1:604 81.925 8.445 )
*|S (1:605 84.285 8.445 )
*|S (1:606 87.375 8.445 )
*|S (1:607 89.735 8.445 )
*|S (1:608 92.825 8.445 )
*|S (1:609 95.185 8.445 )
*|S (1:610 36.395 10.805 )
*|S (1:611 38.755 10.805 )
*|S (1:612 41.845 10.805 )
*|S (1:613 44.205 10.805 )
*|S (1:614 71.025 10.805 )
*|S (1:615 73.385 10.805 )
*|S (1:616 76.475 10.805 )
*|S (1:617 78.835 10.805 )
*|S (1:618 81.925 10.805 )
*|S (1:619 84.285 10.805 )
*|S (1:620 87.375 10.805 )
*|S (1:621 89.735 10.805 )
*|S (1:622 92.825 10.805 )
*|S (1:623 95.185 10.805 )
*|S (1:624 33.02 5.795 )
*|S (1:625 38.36 22.775 )
*|S (1:626 40.72 22.775 )
*|S (1:627 43.81 22.775 )
*|S (1:628 46.17 22.775 )
*|S (1:629 49.26 22.775 )
*|S (1:630 51.62 22.775 )
*|S (1:631 54.71 22.775 )
*|S (1:632 57.07 22.775 )
*|S (1:633 59.855 22.775 )
*|S (1:634 62.215 22.775 )
*|S (1:635 65.61 22.775 )
*|S (1:636 67.97 22.775 )
*|S (1:637 71.06 22.775 )
*|S (1:638 73.42 22.775 )
*|S (1:639 76.51 22.775 )
*|S (1:640 78.87 22.775 )
*|S (1:641 81.96 22.775 )
*|S (1:642 84.32 22.775 )
*|S (1:643 87.41 22.775 )
*|S (1:644 89.77 22.775 )
*|S (1:645 92.86 22.775 )
*|S (1:646 95.22 22.775 )
*|S (1:647 38.36 25.135 )
*|S (1:648 40.72 25.135 )
*|S (1:649 43.81 25.135 )
*|S (1:650 46.17 25.135 )
*|S (1:651 49.26 25.135 )
*|S (1:652 51.62 25.135 )
*|S (1:653 54.71 25.135 )
*|S (1:654 57.07 25.135 )
*|S (1:655 59.855 25.135 )
*|S (1:656 62.215 25.135 )
*|S (1:657 65.61 25.135 )
*|S (1:658 67.97 25.135 )
*|S (1:659 71.06 25.135 )
*|S (1:660 73.42 25.135 )
*|S (1:661 76.51 25.135 )
*|S (1:662 78.87 25.135 )
*|S (1:663 81.96 25.135 )
*|S (1:664 84.32 25.135 )
*|S (1:665 87.41 25.135 )
*|S (1:666 89.77 25.135 )
*|S (1:667 92.86 25.135 )
*|S (1:668 95.22 25.135 )
*|S (1:669 35.44 27.105 )
*|S (1:670 35.44 27.345 )
*|S (1:671 35.44 28.055 )
*|S (1:672 35.44 28.765 )
*|S (1:673 35.44 29.005 )
*|S (1:674 63.677 33.31 )
*|S (1:675 77.135 33.31 )
*|S (1:676 63.917 33.31 )
*|S (1:677 64.627 33.31 )
*|S (1:678 65.337 33.31 )
*|S (1:679 66.047 33.31 )
*|S (1:680 77.375 33.31 )
*|S (1:681 78.085 33.31 )
*|S (1:682 78.795 33.31 )
*|S (1:683 82.075 37.8 )
*|S (1:684 84.435 37.8 )
*|S (1:685 87.525 37.8 )
*|S (1:686 89.885 37.8 )
*|S (1:687 82.075 40.16 )
*|S (1:688 84.435 40.16 )
*|S (1:689 87.525 40.16 )
*|S (1:690 89.885 40.16 )
*|S (1:691 66.287 33.31 )
*|S (1:692 79.035 33.31 )
*|S (1:713 33.52 6.295 )
*|S (1:714 33.52 18.84 )
*|S (1:715 35.44 18.34 )
*|S (1:716 34.94 18.84 )
*|S (1:717 35.44 27.345 )
*|S (1:718 35.44 28.055 )
*|S (1:719 35.44 28.765 )
*|S (1:720 35.395 9.625 )
*|S (1:724 37.575 9.655 )
*|S (1:728 35.94 23.955 )
*|S (1:729 35.94 33.31 )
*|S (1:735 39.54 23.985 )
*|S (1:743 40.325 5.795 )
*|S (1:744 39.825 6.295 )
*|S (1:745 39.825 9.625 )
*|S (1:753 43.025 9.655 )
*|S (1:762 44.99 23.985 )
*|S (1:770 45.205 9.625 )
*|S (1:776 50.44 23.985 )
*|S (1:787 55.89 23.985 )
*|S (1:798 61.035 23.985 )
*|S (1:806 63.917 33.31 )
*|S (1:807 64.627 33.31 )
*|S (1:811 66.79 23.985 )
*|S (1:815 65.337 33.31 )
*|S (1:818 66.047 33.31 )
*|S (1:821 70.025 9.625 )
*|S (1:825 72.205 9.655 )
*|S (1:832 72.24 23.985 )
*|S (1:844 74.95 5.795 )
*|S (1:845 74.45 6.295 )
*|S (1:846 74.45 9.625 )
*|S (1:852 77.655 9.655 )
*|S (1:859 77.69 23.985 )
*|S (1:867 77.375 33.31 )
*|S (1:868 78.085 33.31 )
*|S (1:869 78.795 33.31 )
*|S (1:874 80.435 5.795 )
*|S (1:875 79.935 6.295 )
*|S (1:876 79.935 9.625 )
*|S (1:879 81.075 38.98 )
*|S (1:883 83.105 9.655 )
*|S (1:890 83.14 23.985 )
*|S (1:897 83.255 39.01 )
*|S (1:913 85.86 5.795 )
*|S (1:914 85.36 6.295 )
*|S (1:915 85.36 9.625 )
*|S (1:916 85.995 32.81 )
*|S (1:917 85.495 33.31 )
*|S (1:918 85.495 38.98 )
*|S (1:925 88.555 9.655 )
*|S (1:932 88.59 23.985 )
*|S (1:939 88.705 39.01 )
*|S (1:955 91.24 5.795 )
*|S (1:956 90.74 6.295 )
*|S (1:957 90.74 9.625 )
*|S (1:958 90.885 38.98 )
*|S (1:964 94.005 9.655 )
*|S (1:971 94.04 23.985 )
*|S (1:983 93.975 6.295 )
*|S (1:984 96.185 9.625 )
*|S (1:985 96.22 23.955 )
*|S (1:986 40.325 11.285 )
*|S (1:987 74.95 11.285 )
*|S (1:988 80.435 11.285 )
*|S (1:989 85.86 11.285 )
*|S (1:990 91.24 11.285 )
*|S (1:991 33.02 19.34 )
*|S (1:992 35.44 33.81 )
*|S (1:993 85.995 40.64 )
**layer metal1 (total cap 9.20957e-15)
**layer metal2 (total cap 1.17362e-15)
**layer metal3 (total cap 1.13948e-15)
**layer pmcap (total cap 3.50988e-16)
**layer mimcap (total cap 1.76736e-14)
**layer metal6 (total cap 3.15566e-14)
**layer metal5 (total cap 3.12287e-16)
**layer metal4 (total cap 3.24484e-16)
**layer ptd (total cap 1.67737e-15)
**layer poly (total cap 1.99701e-14)
**layer psd (total cap 0)
**layer nsd (total cap 0)
**layer pgate18 (total cap 0)
**layer MIM (total cap 1.66197e-16)
R_0 M30:D M31:S 1e-05
R_1 M28:D M29:S 1e-05
R_2 1:77 M54:D 1e-05
R_3 M6:D M7:S 1e-05
R_4 1:11 M5:S 1e-05
R_5 1:11 M4:D 1e-05
R_6 1:345 1:11 15
R_7 1:347 1:11 15
R_8 1:349 1:11 15
R_9 1:357 1:11 15
R_10 1:361 1:11 15
R_11 1:365 1:11 15
R_12 1:370 1:11 15
R_13 1:372 1:11 15
R_14 1:346 M6:D 15
R_15 1:348 M6:D 15
R_16 1:350 M6:D 15
R_17 1:358 M6:D 15
R_18 1:362 M6:D 15
R_19 1:366 M6:D 15
R_20 1:371 M6:D 15
R_21 1:373 M6:D 15
R_22 1:389 M28:D 15
R_23 1:391 M28:D 15
R_24 1:393 M28:D 15
R_25 1:395 M28:D 15
R_26 1:397 M28:D 15
R_27 1:399 M28:D 15
R_28 1:401 M28:D 15
R_29 1:405 M28:D 15
R_30 1:420 M28:D 15
R_31 1:422 M28:D 15
R_32 1:424 M28:D 15
R_33 1:476 M28:D 15
R_34 1:479 M28:D 15
R_35 1:481 M28:D 15
R_36 1:483 M28:D 15
R_37 1:485 M28:D 15
R_38 1:487 M28:D 15
R_39 1:390 M30:D 15
R_40 1:392 M30:D 15
R_41 1:394 M30:D 15
R_42 1:396 M30:D 15
R_43 1:398 M30:D 15
R_44 1:400 M30:D 15
R_45 1:402 M30:D 15
R_46 1:406 M30:D 15
R_47 1:421 M30:D 15
R_48 1:423 M30:D 15
R_49 1:425 M30:D 15
R_50 1:477 M30:D 15
R_51 1:480 M30:D 15
R_52 1:482 M30:D 15
R_53 1:484 M30:D 15
R_54 1:486 M30:D 15
R_55 1:488 M30:D 15
R_56 1:493 1:77 15
R_57 1 1:156 3.423
R_58 1:100 1:159 3.423
R_59 1:159 M35:G 12.4695
R_60 1:159 1:160 8.15
R_61 1:102 1:161 3.423
R_62 1:161 M36:G 12.4695
R_63 1:161 1:162 3.49286
R_64 1:104 1:164 3.423
R_65 1:164 M37:G 12.4695
R_66 1:164 1:165 9.78
R_67 1:106 1:166 3.423
R_68 1:166 M38:G 12.4695
R_69 1:166 1:167 5.12286
R_70 1:108 1:168 3.423
R_71 1:110 1:171 3.423
R_72 1:171 M40:G 12.4695
R_73 1:171 1:172 6.75286
R_74 1:112 1:173 3.423
R_75 1:114 1:176 3.423
R_76 1:176 M42:G 12.4695
R_77 1:176 1:177 8.38286
R_78 1:116 1:178 3.423
R_79 1:178 M43:G 12.4695
R_80 1:178 1:179 3.72571
R_81 1:118 1:181 3.423
R_82 1:181 M44:G 12.4695
R_83 1:181 1:183 10.0129
R_84 1:120 1:183 3.423
R_85 1:183 M45:G 12.4695
R_86 1:183 1:184 5.35571
R_87 1:122 1:185 3.423
R_88 1:124 1:188 3.423
R_89 1:188 M47:G 12.4695
R_90 1:188 1:189 6.98571
R_91 1:126 1:190 3.423
R_92 1:128 1:193 3.423
R_93 1:193 M49:G 12.4695
R_94 1:193 1:194 8.61571
R_95 1:130 1:195 3.423
R_96 1:195 M50:G 12.4695
R_97 1:195 1:196 3.95857
R_98 1:132 1:198 3.423
R_99 1:198 M51:G 12.4695
R_100 1:198 1:200 10.2457
R_101 1:134 1:200 3.423
R_102 1:200 M52:G 12.4695
R_103 1:200 1:201 5.58857
R_104 1:136 1:155 3.423
R_105 1:156 1:159 10.7114
R_106 1:160 1:161 4.42429
R_107 1:162 1:164 9.08143
R_108 1:165 1:166 2.79429
R_109 1:167 1:168 7.45143
R_110 1:172 1:173 5.82143
R_111 1:173 1:176 10.4786
R_112 1:177 1:178 4.19143
R_113 1:179 1:181 8.84857
R_114 1:184 1:185 7.21857
R_115 1:189 1:190 5.58857
R_116 1:190 1:193 10.2457
R_117 1:194 1:195 3.95857
R_118 1:196 1:198 8.61571
R_119 1:201 1:155 6.98571
R_120 1:429 1:156 15
R_121 1:430 1:156 15
R_122 1:156 M34:G 12.4695
R_123 1:431 1:159 15
R_124 1:432 1:159 15
R_125 1:433 1:160 15
R_126 1:434 1:161 15
R_127 1:435 1:162 15
R_128 1:436 1:164 15
R_129 1:437 1:164 15
R_130 1:438 1:165 15
R_131 1:439 1:166 15
R_132 1:440 1:167 15
R_133 1:441 1:168 15
R_134 1:442 1:168 15
R_135 1:168 M39:G 12.4695
R_136 1:168 1:171 10.9443
R_137 1:443 1:171 15
R_138 1:444 1:171 15
R_139 1:445 1:172 15
R_140 1:446 1:173 15
R_141 1:447 1:173 15
R_142 1:173 M41:G 12.4695
R_143 1:448 1:176 15
R_144 1:449 1:176 15
R_145 1:450 1:177 15
R_146 1:453 1:178 15
R_147 1:453 1:179 15
R_148 1:453 1:181 15
R_149 1:454 1:181 15
R_150 1:455 1:183 15
R_151 1:456 1:183 15
R_152 1:457 1:184 15
R_153 1:458 1:185 15
R_154 1:459 1:185 15
R_155 1:185 M46:G 12.4695
R_156 1:185 1:188 10.9443
R_157 1:460 1:188 15
R_158 1:461 1:188 15
R_159 1:462 1:189 15
R_160 1:463 1:190 15
R_161 1:464 1:190 15
R_162 1:190 M48:G 12.4695
R_163 1:465 1:193 15
R_164 1:466 1:193 15
R_165 1:467 1:194 15
R_166 1:468 1:195 15
R_167 1:469 1:196 15
R_168 1:470 1:198 15
R_169 1:471 1:198 15
R_170 1:472 1:200 15
R_171 1:473 1:200 15
R_172 1:474 1:201 15
R_173 1:475 1:155 15
R_174 1:155 M53:G 12.4695
R_175 1:303 1:345 0.0576522
R_176 1:344 1:346 0.0576522
R_177 1:345 1:347 0.172957
R_178 1:346 1:348 0.172957
R_179 1:347 1:349 0.172957
R_180 1:348 1:350 0.172957
R_181 1:349 1:351 0.0220435
R_182 1:349 1:351 0.0133421
R_183 1:350 1:352 0.0220435
R_184 1:350 1:352 0.0133421
R_185 1:351 1:355 0.039
R_186 1:352 1:356 0.039
R_187 1:500 1:355 4
R_188 1:355 1:357 0.0523421
R_189 1:507 1:356 4
R_190 1:356 1:358 0.0523421
R_191 1:357 1:359 0.0543947
R_192 1:358 1:360 0.0543947
R_193 1:501 1:359 4
R_194 1:359 1:361 0.0502895
R_195 1:508 1:360 4
R_196 1:360 1:362 0.0502895
R_197 1:361 1:363 0.0564474
R_198 1:362 1:364 0.0564474
R_199 1:502 1:363 4
R_200 1:363 1:374 0.039
R_201 1:509 1:364 4
R_202 1:364 1:375 0.039
R_203 1:374 1:365 0.00923684
R_204 1:374 1:365 0.0152609
R_205 1:365 1:370 0.172957
R_206 1:375 1:366 0.00923684
R_207 1:375 1:366 0.0152609
R_208 1:366 1:371 0.172957
R_209 1:367 1:500 0.039
R_210 1:370 1:372 0.176348
R_211 1:371 1:373 0.176348
R_212 1:372 1:376 0.0576522
R_213 1:373 1:377 0.0576522
R_214 1:388 1:379 0.0369474
R_215 1:514 1:379 4
R_216 1:379 1:380 0.106737
R_217 1:517 1:380 4
R_218 1:380 1:381 0.106737
R_219 1:521 1:381 4
R_220 1:381 1:495 0.039
R_221 1:382 1:388 0.0356087
R_222 1:495 1:386 0.259435
R_223 1:388 1:378 0.0356087
R_224 1:378 1:388 0.00205263
R_225 1:386 1:390 0.135652
R_226 1:386 1:496 0.039
R_227 1:388 1:389 0.135652
R_228 1:389 1:391 0.159391
R_229 1:390 1:392 0.159391
R_230 1:391 1:393 0.159391
R_231 1:392 1:394 0.159391
R_232 1:393 1:395 0.159391
R_233 1:394 1:396 0.159391
R_234 1:395 1:397 0.159391
R_235 1:396 1:398 0.159391
R_236 1:397 1:399 0.159391
R_237 1:398 1:400 0.159391
R_238 1:399 1:401 0.159391
R_239 1:400 1:402 0.159391
R_240 1:401 1:405 0.159391
R_241 1:402 1:406 0.159391
R_242 1:403 1:415 0.0308057
R_243 1:404 1:418 0.078
R_244 1:405 1:420 0.159391
R_245 1:406 1:421 0.159391
R_246 1:407 1:413 0.039
R_247 1:415 1:453 0.0985782
R_248 1:415 1:416 0.0886737
R_249 1:409 1:417 0.039
R_250 1:418 1:492 1.755
R_251 1:418 1:419 0.0944211
R_252 1:413 1:415 0.0886737
R_253 1:417 1:418 0.0944211
R_254 1:529 1:413 4
R_255 1:530 1:415 4
R_256 1:531 1:415 4
R_257 1:532 1:416 4
R_258 1:416 1:497 0.039
R_259 1:535 1:417 4
R_260 1:536 1:418 4
R_261 1:537 1:419 4
R_262 1:419 1:499 0.039
R_263 1:420 1:422 0.159391
R_264 1:421 1:423 0.159391
R_265 1:422 1:424 0.159391
R_266 1:423 1:425 0.159391
R_267 1:424 1:476 0.159391
R_268 1:425 1:477 0.159391
R_269 1:426 1:429 0.0576522
R_270 1:453 1:478 0.00708531
R_271 1:453 1:454 0.103435
R_272 1:450 1:453 0.104791
R_273 1:429 1:430 0.159391
R_274 1:430 1:431 0.159391
R_275 1:431 1:432 0.159391
R_276 1:432 1:433 0.159391
R_277 1:433 1:434 0.159391
R_278 1:434 1:435 0.159391
R_279 1:435 1:436 0.159391
R_280 1:436 1:437 0.159391
R_281 1:437 1:438 0.159391
R_282 1:438 1:439 0.159391
R_283 1:439 1:440 0.159391
R_284 1:440 1:441 0.159391
R_285 1:441 1:442 0.159391
R_286 1:442 1:443 0.159391
R_287 1:443 1:444 0.159391
R_288 1:444 1:445 0.159391
R_289 1:445 1:446 0.159391
R_290 1:446 1:447 0.159391
R_291 1:447 1:448 0.159391
R_292 1:448 1:449 0.159391
R_293 1:449 1:450 0.159391
R_294 1:454 1:455 0.159391
R_295 1:455 1:456 0.159391
R_296 1:456 1:457 0.159391
R_297 1:457 1:458 0.159391
R_298 1:458 1:459 0.159391
R_299 1:459 1:460 0.159391
R_300 1:460 1:461 0.159391
R_301 1:461 1:462 0.159391
R_302 1:462 1:463 0.159391
R_303 1:463 1:464 0.159391
R_304 1:464 1:465 0.159391
R_305 1:465 1:466 0.159391
R_306 1:466 1:467 0.159391
R_307 1:467 1:468 0.159391
R_308 1:468 1:469 0.159391
R_309 1:469 1:470 0.159391
R_310 1:470 1:471 0.159391
R_311 1:471 1:472 0.159391
R_312 1:472 1:473 0.159391
R_313 1:473 1:474 0.159391
R_314 1:474 1:475 0.234
R_315 1:475 1:498 0.0576522
R_316 1:476 1:479 0.159391
R_317 1:477 1:480 0.159391
R_318 1:479 1:481 0.159391
R_319 1:480 1:482 0.159391
R_320 1:481 1:483 0.159391
R_321 1:482 1:484 0.159391
R_322 1:483 1:485 0.159391
R_323 1:484 1:486 0.159391
R_324 1:485 1:487 0.179739
R_325 1:486 1:488 0.179739
R_326 1:487 1:489 0.0576522
R_327 1:488 1:490 0.0576522
R_328 1:491 1:493 0.01794
R_329 1:493 1:492 2.87274
R_330 1:492 1:494 0.039
R_331 1:543 1:500 4
R_332 1:500 1:501 0.106737
R_333 1:544 1:501 4
R_334 1:501 1:502 0.106737
R_335 1:545 1:502 4
R_336 1:502 1:539 0.039
R_337 1:503 1:543 0.039
R_338 1:504 1:505 0.039
R_339 1:552 1:505 4
R_340 1:505 1:510 0.106737
R_341 1:506 1:507 0.039
R_342 1:555 1:507 4
R_343 1:507 1:508 0.106737
R_344 1:554 1:508 4
R_345 1:508 1:509 0.106737
R_346 1:557 1:509 4
R_347 1:509 1:540 0.039
R_348 1:558 1:510 4
R_349 1:510 1:511 0.106737
R_350 1:559 1:511 4
R_351 1:511 1:512 0.039
R_352 1:512 1:516 0.564107
R_353 1:513 1:514 0.039
R_354 1:514 1:517 0.078
R_355 1:515 1:516 0.039
R_356 1:516 1:517 0.353786
R_357 1:516 1:524 0.981964
R_358 1:517 1:521 0.078
R_359 1:517 1:542 0.0529286
R_360 1:521 1:522 0.039
R_361 1:523 1:525 0.039
R_362 1:525 1:524 0.145737
R_363 1:562 1:525 4
R_364 1:563 1:524 4
R_365 1:524 1:527 0.145737
R_366 1:564 1:527 4
R_367 1:527 1:541 0.039
R_368 1:528 1:529 0.039
R_369 1:566 1:529 4
R_370 1:529 1:530 0.145737
R_371 1:567 1:530 4
R_372 1:530 1:531 0.145737
R_373 1:568 1:531 4
R_374 1:531 1:532 0.145737
R_375 1:569 1:532 4
R_376 1:532 1:533 0.039
R_377 1:534 1:535 0.039
R_378 1:572 1:535 4
R_379 1:535 1:536 0.145737
R_380 1:573 1:536 4
R_381 1:536 1:537 0.145737
R_382 1:574 1:537 4
R_383 1:537 1:538 0.039
R_384 1:543 1:544 0.106737
R_385 1:544 1:545 0.106737
R_386 1:545 1:576 0.039
R_387 1:544 1:548 0.47775
R_388 1:547 1:548 0.039
R_389 1:548 1:554 0.469393
R_390 1:548 1:550 1.287
R_391 1:550 1:551 0.452679
R_392 1:550 1:578 0.039
R_393 1:551 1:552 0.039
R_394 1:552 1:558 0.106737
R_395 1:553 1:555 0.039
R_396 1:555 1:554 0.106737
R_397 1:554 1:557 0.106737
R_398 1:557 1:577 0.039
R_399 1:558 1:559 0.106737
R_400 1:559 1:560 0.039
R_401 1:561 1:562 0.039
R_402 1:581 1:562 4
R_403 1:562 1:563 0.145737
R_404 1:582 1:563 4
R_405 1:563 1:564 0.145737
R_406 1:583 1:564 4
R_407 1:564 1:579 0.039
R_408 1:565 1:566 0.039
R_409 1:585 1:566 4
R_410 1:566 1:567 0.145737
R_411 1:586 1:567 4
R_412 1:567 1:568 0.145737
R_413 1:587 1:568 4
R_414 1:568 1:569 0.145737
R_415 1:588 1:569 4
R_416 1:569 1:570 0.039
R_417 1:571 1:572 0.039
R_418 1:591 1:572 4
R_419 1:572 1:573 0.145737
R_420 1:592 1:573 4
R_421 1:573 1:574 0.145737
R_422 1:593 1:574 4
R_423 1:574 1:575 0.039
R_424 1:580 1:581 0.039
R_425 1:670 1:581 4
R_426 1:581 1:582 0.145737
R_427 1:671 1:582 4
R_428 1:582 1:583 0.145737
R_429 1:672 1:583 4
R_430 1:583 1:595 0.039
R_431 1:584 1:585 0.039
R_432 1:676 1:585 4
R_433 1:585 1:586 0.145737
R_434 1:677 1:586 4
R_435 1:586 1:587 0.145737
R_436 1:678 1:587 4
R_437 1:587 1:588 0.145737
R_438 1:679 1:588 4
R_439 1:588 1:589 0.039
R_440 1:590 1:591 0.039
R_441 1:680 1:591 4
R_442 1:591 1:592 0.145737
R_443 1:681 1:592 4
R_444 1:592 1:593 0.145737
R_445 1:682 1:593 4
R_446 1:593 1:594 0.039
R_447 C79:POS 1:596 2
R_448 C79:POS 1:597 2
R_449 C80:POS 1:598 2
R_450 C80:POS 1:599 2
R_451 C69:POS 1:600 2
R_452 C69:POS 1:601 2
R_453 C70:POS 1:602 2
R_454 C70:POS 1:603 2
R_455 C71:POS 1:604 2
R_456 C71:POS 1:605 2
R_457 C72:POS 1:606 2
R_458 C72:POS 1:607 2
R_459 C73:POS 1:608 2
R_460 C73:POS 1:609 2
R_461 C79:POS 1:610 2
R_462 C79:POS 1:611 2
R_463 C80:POS 1:612 2
R_464 C80:POS 1:613 2
R_465 C69:POS 1:614 2
R_466 C69:POS 1:615 2
R_467 C70:POS 1:616 2
R_468 C70:POS 1:617 2
R_469 C71:POS 1:618 2
R_470 C71:POS 1:619 2
R_471 C72:POS 1:620 2
R_472 C72:POS 1:621 2
R_473 C73:POS 1:622 2
R_474 C73:POS 1:623 2
R_475 1:624 1:713 0.018
R_476 C65:POS 1:625 2
R_477 C65:POS 1:626 2
R_478 C66:POS 1:627 2
R_479 C66:POS 1:628 2
R_480 C67:POS 1:629 2
R_481 C67:POS 1:630 2
R_482 C68:POS 1:631 2
R_483 C68:POS 1:632 2
R_484 C81:POS 1:633 2
R_485 C81:POS 1:634 2
R_486 C82:POS 1:635 2
R_487 C82:POS 1:636 2
R_488 C74:POS 1:637 2
R_489 C74:POS 1:638 2
R_490 C75:POS 1:639 2
R_491 C75:POS 1:640 2
R_492 C76:POS 1:641 2
R_493 C76:POS 1:642 2
R_494 C77:POS 1:643 2
R_495 C77:POS 1:644 2
R_496 C78:POS 1:645 2
R_497 C78:POS 1:646 2
R_498 C65:POS 1:647 2
R_499 C65:POS 1:648 2
R_500 C66:POS 1:649 2
R_501 C66:POS 1:650 2
R_502 C67:POS 1:651 2
R_503 C67:POS 1:652 2
R_504 C68:POS 1:653 2
R_505 C68:POS 1:654 2
R_506 C81:POS 1:655 2
R_507 C81:POS 1:656 2
R_508 C82:POS 1:657 2
R_509 C82:POS 1:658 2
R_510 C74:POS 1:659 2
R_511 C74:POS 1:660 2
R_512 C75:POS 1:661 2
R_513 C75:POS 1:662 2
R_514 C76:POS 1:663 2
R_515 C76:POS 1:664 2
R_516 C77:POS 1:665 2
R_517 C77:POS 1:666 2
R_518 C78:POS 1:667 2
R_519 C78:POS 1:668 2
R_520 1:669 1:670 0.039
R_521 1:717 1:670 2
R_522 1:670 1:671 0.115375
R_523 1:718 1:671 2
R_524 1:671 1:672 0.115375
R_525 1:719 1:672 2
R_526 1:672 1:673 0.039
R_527 1:674 1:676 0.039
R_528 1:675 1:680 0.039
R_529 1:806 1:676 2
R_530 1:676 1:677 0.115375
R_531 1:807 1:677 2
R_532 1:677 1:678 0.115375
R_533 1:815 1:678 2
R_534 1:678 1:679 0.115375
R_535 1:818 1:679 2
R_536 1:679 1:691 0.039
R_537 1:867 1:680 2
R_538 1:680 1:681 0.115375
R_539 1:868 1:681 2
R_540 1:681 1:682 0.115375
R_541 1:869 1:682 2
R_542 1:682 1:692 0.039
R_543 C83:POS 1:683 2
R_544 C83:POS 1:684 2
R_545 C84:POS 1:685 2
R_546 C84:POS 1:686 2
R_547 C83:POS 1:687 2
R_548 C83:POS 1:688 2
R_549 C84:POS 1:689 2
R_550 C84:POS 1:690 2
R_551 1:713 1:744 0.22698
R_552 1:713 1:714 0.45162
R_553 1:714 1:716 0.05112
R_554 1:714 1:991 0.018
R_555 1:715 1:716 0.018
R_556 1:716 1:728 0.18414
R_557 1:728 1:717 0.12204
R_558 1:717 1:718 0.02556
R_559 1:718 1:719 0.02556
R_560 1:719 1:729 0.16362
R_561 1:720 C79:POS 0.00195181
R_562 C79:POS 1:745 0.00271084
R_563 C79:POS 1:724 0.0127952
R_564 C79:POS 1:724 0.01089
R_565 1:724 C79:POS 0.0127952
R_566 1:724 C79:POS 0.01035
R_567 1:728 C65:POS 0.0173494
R_568 1:729 1:806 1.00717
R_569 1:729 1:992 0.018
R_570 C65:POS C66:POS 0.0157229
R_571 C65:POS 1:735 0.0127952
R_572 C65:POS 1:735 0.01089
R_573 1:735 C65:POS 0.0127952
R_574 1:735 C65:POS 0.01035
R_575 1:743 1:744 0.018
R_576 1:744 1:745 0.11988
R_577 1:744 1:845 1.2105
R_578 1:745 C80:POS 0.00216867
R_579 1:745 1:986 0.05976
R_580 C80:POS 1:770 0.00195181
R_581 C80:POS 1:753 0.0127952
R_582 C80:POS 1:753 0.01089
R_583 1:753 C80:POS 0.0127952
R_584 1:753 C80:POS 0.01035
R_585 C66:POS C67:POS 0.0157229
R_586 C66:POS 1:762 0.0127952
R_587 C66:POS 1:762 0.01089
R_588 1:762 C66:POS 0.0127952
R_589 1:762 C66:POS 0.01035
R_590 C67:POS C68:POS 0.0157229
R_591 C67:POS 1:776 0.0127952
R_592 C67:POS 1:776 0.01089
R_593 1:776 C67:POS 0.0127952
R_594 1:776 C67:POS 0.01035
R_595 C68:POS C81:POS 0.0124157
R_596 C68:POS 1:787 0.0127952
R_597 C68:POS 1:787 0.01089
R_598 1:787 C68:POS 0.0127952
R_599 1:787 C68:POS 0.01035
R_600 C81:POS C82:POS 0.0190301
R_601 C81:POS 1:798 0.0127952
R_602 C81:POS 1:798 0.01089
R_603 1:798 C81:POS 0.0127952
R_604 1:798 C81:POS 0.01035
R_605 1:806 1:807 0.02556
R_606 1:807 1:815 0.02556
R_607 C82:POS C74:POS 0.0157229
R_608 C82:POS 1:811 0.0127952
R_609 C82:POS 1:811 0.01089
R_610 1:811 C82:POS 0.0127952
R_611 1:811 C82:POS 0.01035
R_612 1:815 1:818 0.02556
R_613 1:818 1:867 0.407808
R_614 1:821 C69:POS 0.00195181
R_615 C69:POS 1:846 0.00265663
R_616 C69:POS 1:825 0.0127952
R_617 C69:POS 1:825 0.01089
R_618 1:825 C69:POS 0.0127952
R_619 1:825 C69:POS 0.01035
R_620 C74:POS C75:POS 0.0157229
R_621 C74:POS 1:832 0.0127952
R_622 C74:POS 1:832 0.01089
R_623 1:832 C74:POS 0.0127952
R_624 1:832 C74:POS 0.01035
R_625 1:844 1:845 0.018
R_626 1:845 1:846 0.11988
R_627 1:845 1:875 0.16146
R_628 1:846 C70:POS 0.00222289
R_629 1:846 1:987 0.05976
R_630 C70:POS 1:876 0.00303614
R_631 C70:POS 1:852 0.0127952
R_632 C70:POS 1:852 0.01089
R_633 1:852 C70:POS 0.0127952
R_634 1:852 C70:POS 0.01035
R_635 C75:POS C76:POS 0.0157229
R_636 C75:POS 1:859 0.0127952
R_637 C75:POS 1:859 0.01089
R_638 1:859 C75:POS 0.0127952
R_639 1:859 C75:POS 0.01035
R_640 1:867 1:868 0.02556
R_641 1:868 1:869 0.02556
R_642 1:869 1:917 0.2412
R_643 1:874 1:875 0.018
R_644 1:875 1:876 0.11988