******************************************************************
*                      MIM Capacitor                             * 
******************************************************************
.model mim c
+COX = '9.71E-04+DMIM'         TC1 = -3.48E-05          TREF  = 25
*
