*SPEF "IEEE 1481-1999"
*DESIGN "mips_processor"
*DATE "Mon Nov 30 19:08:33 2020"
*VENDOR "SYNOPSYS INC"
*PROGRAM "Synopsys Design Compiler cmos"
*VERSION "L-2016.03-SP5"
*DESIGN_FLOW "SYNTHESIS"
*DIVIDER /
*DELIMITER :
*BUS_DELIMITER []
*T_UNIT 1.0 NS
*C_UNIT 0.0010 PF
*R_UNIT 1000.0 KOHM
*L_UNIT 1.0 HENRY

*PORTS

clk I *L 0.000e+00 *S 0.000e+00 0.000e+00 
reset I *L 0.000e+00 *S 0.000e+00 0.000e+00 
last_inst\[4\] I *L 0.000e+00 *S 0.000e+00 0.000e+00 
last_inst\[3\] I *L 0.000e+00 *S 0.000e+00 0.000e+00 
last_inst\[2\] I *L 0.000e+00 *S 0.000e+00 0.000e+00 
last_inst\[1\] I *L 0.000e+00 *S 0.000e+00 0.000e+00 
last_inst\[0\] I *L 0.000e+00 *S 0.000e+00 0.000e+00 
start I *L 0.000e+00 *S 0.000e+00 0.000e+00 
winst\[31\] I *L 0.000e+00 *S 0.000e+00 0.000e+00 
winst\[30\] I *L 0.000e+00 *S 0.000e+00 0.000e+00 
winst\[29\] I *L 0.000e+00 *S 0.000e+00 0.000e+00 
winst\[28\] I *L 0.000e+00 *S 0.000e+00 0.000e+00 
winst\[27\] I *L 0.000e+00 *S 0.000e+00 0.000e+00 
winst\[26\] I *L 0.000e+00 *S 0.000e+00 0.000e+00 
winst\[25\] I *L 0.000e+00 *S 0.000e+00 0.000e+00 
winst\[24\] I *L 0.000e+00 *S 0.000e+00 0.000e+00 
winst\[23\] I *L 0.000e+00 *S 0.000e+00 0.000e+00 
winst\[22\] I *L 0.000e+00 *S 0.000e+00 0.000e+00 
winst\[21\] I *L 0.000e+00 *S 0.000e+00 0.000e+00 
winst\[20\] I *L 0.000e+00 *S 0.000e+00 0.000e+00 
winst\[19\] I *L 0.000e+00 *S 0.000e+00 0.000e+00 
winst\[18\] I *L 0.000e+00 *S 0.000e+00 0.000e+00 
winst\[17\] I *L 0.000e+00 *S 0.000e+00 0.000e+00 
winst\[16\] I *L 0.000e+00 *S 0.000e+00 0.000e+00 
winst\[15\] I *L 0.000e+00 *S 0.000e+00 0.000e+00 
winst\[14\] I *L 0.000e+00 *S 0.000e+00 0.000e+00 
winst\[13\] I *L 0.000e+00 *S 0.000e+00 0.000e+00 
winst\[12\] I *L 0.000e+00 *S 0.000e+00 0.000e+00 
winst\[11\] I *L 0.000e+00 *S 0.000e+00 0.000e+00 
winst\[10\] I *L 0.000e+00 *S 0.000e+00 0.000e+00 
winst\[9\] I *L 0.000e+00 *S 0.000e+00 0.000e+00 
winst\[8\] I *L 0.000e+00 *S 0.000e+00 0.000e+00 
winst\[7\] I *L 0.000e+00 *S 0.000e+00 0.000e+00 
winst\[6\] I *L 0.000e+00 *S 0.000e+00 0.000e+00 
winst\[5\] I *L 0.000e+00 *S 0.000e+00 0.000e+00 
winst\[4\] I *L 0.000e+00 *S 0.000e+00 0.000e+00 
winst\[3\] I *L 0.000e+00 *S 0.000e+00 0.000e+00 
winst\[2\] I *L 0.000e+00 *S 0.000e+00 0.000e+00 
winst\[1\] I *L 0.000e+00 *S 0.000e+00 0.000e+00 
winst\[0\] I *L 0.000e+00 *S 0.000e+00 0.000e+00 
waddr\[4\] I *L 0.000e+00 *S 0.000e+00 0.000e+00 
waddr\[3\] I *L 0.000e+00 *S 0.000e+00 0.000e+00 
waddr\[2\] I *L 0.000e+00 *S 0.000e+00 0.000e+00 
waddr\[1\] I *L 0.000e+00 *S 0.000e+00 0.000e+00 
waddr\[0\] I *L 0.000e+00 *S 0.000e+00 0.000e+00 
memwrite I *L 0.000e+00 *S 0.000e+00 0.000e+00 
isend O *L 0.000e+00 *S 2.035e-02 2.417e-02 
result_addr\[4\] I *L 0.000e+00 *S 0.000e+00 0.000e+00 
result_addr\[3\] I *L 0.000e+00 *S 0.000e+00 0.000e+00 
result_addr\[2\] I *L 0.000e+00 *S 0.000e+00 0.000e+00 
result_addr\[1\] I *L 0.000e+00 *S 0.000e+00 0.000e+00 
result_addr\[0\] I *L 0.000e+00 *S 0.000e+00 0.000e+00 
result\[31\] O *L 0.000e+00 *S 2.152e-02 2.641e-02 
result\[30\] O *L 0.000e+00 *S 4.551e-02 6.673e-02 
result\[29\] O *L 0.000e+00 *S 5.984e-02 9.096e-02 
result\[28\] O *L 0.000e+00 *S 2.852e-02 4.079e-02 
result\[27\] O *L 0.000e+00 *S 4.200e-02 6.136e-02 
result\[26\] O *L 0.000e+00 *S 5.299e-02 7.932e-02 
result\[25\] O *L 0.000e+00 *S 4.585e-02 6.724e-02 
result\[24\] O *L 0.000e+00 *S 5.255e-02 7.856e-02 
result\[23\] O *L 0.000e+00 *S 2.951e-02 4.230e-02 
result\[22\] O *L 0.000e+00 *S 3.838e-02 5.584e-02 
result\[21\] O *L 0.000e+00 *S 5.579e-02 8.407e-02 
result\[20\] O *L 0.000e+00 *S 6.858e-02 1.058e-01 
result\[19\] O *L 0.000e+00 *S 8.805e-02 1.389e-01 
result\[18\] O *L 0.000e+00 *S 7.251e-02 1.125e-01 
result\[17\] O *L 0.000e+00 *S 7.339e-02 1.140e-01 
result\[16\] O *L 0.000e+00 *S 6.770e-02 1.043e-01 
result\[15\] O *L 0.000e+00 *S 3.489e-02 5.051e-02 
result\[14\] O *L 0.000e+00 *S 3.950e-02 5.756e-02 
result\[13\] O *L 0.000e+00 *S 3.114e-02 4.480e-02 
result\[12\] O *L 0.000e+00 *S 3.654e-02 5.303e-02 
result\[11\] O *L 0.000e+00 *S 4.641e-02 6.813e-02 
result\[10\] O *L 0.000e+00 *S 6.437e-02 9.866e-02 
result\[9\] O *L 0.000e+00 *S 6.569e-02 1.009e-01 
result\[8\] O *L 0.000e+00 *S 7.407e-02 1.152e-01 
result\[7\] O *L 0.000e+00 *S 7.596e-02 1.184e-01 
result\[6\] O *L 0.000e+00 *S 2.137e-02 2.624e-02 
result\[5\] O *L 0.000e+00 *S 2.295e-02 2.810e-02 
result\[4\] O *L 0.000e+00 *S 8.086e-02 1.267e-01 
result\[3\] O *L 0.000e+00 *S 2.165e-02 2.656e-02 
result\[2\] O *L 0.000e+00 *S 2.179e-02 2.672e-02 
result\[1\] O *L 0.000e+00 *S 2.172e-02 2.665e-02 
result\[0\] O *L 0.000e+00 *S 6.182e-02 9.433e-02 

*R_NET reset 1.189e+01
*DRIVER reset
*CELL NULL
*C2_R1_C1 5.946e+00 1.668e-04 5.946e+00 
*LOADS
*RC U4269:A 7.495e-04
*RC register_files_1/U7:A 3.996e-05
*END

*R_NET last_inst\[4\] 2.678e+00
*DRIVER last_inst\[4\]
*CELL NULL
*C2_R1_C1 1.339e+00 4.514e-05 1.339e+00 
*LOADS
*RC U4270:A2 5.800e-05
*RC U4271:A2 4.684e-05
*END

*R_NET last_inst\[3\] 1.212e+00
*DRIVER last_inst\[3\]
*CELL NULL
*C2_R1_C1 6.059e-01 6.220e-06 6.059e-01 
*LOADS
*RC U4267:B0 6.668e-06
*END

*R_NET last_inst\[2\] 2.638e+00
*DRIVER last_inst\[2\]
*CELL NULL
*C2_R1_C1 1.319e+00 4.396e-05 1.319e+00 
*LOADS
*RC U4270:A4 5.661e-05
*RC U4271:A3 4.439e-05
*END

*R_NET last_inst\[1\] 8.735e-01
*DRIVER last_inst\[1\]
*CELL NULL
*C2_R1_C1 4.368e-01 8.624e-06 4.368e-01 
*LOADS
*RC U4272:A2 5.863e-06
*END

*R_NET last_inst\[0\] 9.125e-01
*DRIVER last_inst\[0\]
*CELL NULL
*C2_R1_C1 4.563e-01 8.778e-06 4.563e-01 
*LOADS
*RC U4272:A3 6.279e-06
*END

*R_NET start 1.152e+01
*DRIVER start
*CELL NULL
*C2_R1_C1 5.760e+00 2.006e-04 5.760e+00 
*LOADS
*RC U5980:A1 8.304e-04
*RC U5929:A2 7.190e-04
*RC U5875:A1 8.448e-04
*RC U5906:A 7.853e-04
*RC U5912:A1 8.637e-04
*END

*R_NET winst\[31\] 4.686e+01
*DRIVER winst\[31\]
*CELL NULL
*C2_R1_C1 2.343e+01 3.710e-04 2.343e+01 
*LOADS
*RC U4327:A4 2.051e-03
*RC U4359:A2 1.775e-03
*RC U4384:A3 4.848e-04
*RC U4414:A3 7.256e-04
*RC U4438:A3 2.284e-03
*RC U4463:A1 2.850e-03
*RC U4487:A3 4.166e-03
*RC U4519:A3 3.897e-03
*RC U4546:A3 3.023e-03
*RC U4577:A1 1.795e-03
*RC U4651:A1 1.399e-03
*RC U4684:A3 2.272e-03
*RC U4740:A3 2.934e-03
*RC U4765:A3 3.762e-03
*RC U4795:A1 2.936e-03
*RC U4849:A3 2.254e-03
*RC U4871:A1 2.013e-03
*RC U4900:A3 1.628e-03
*RC U4925:A3 2.252e-03
*RC U4955:A3 3.309e-03
*RC U4976:A3 3.029e-03
*RC U5008:A3 3.453e-03
*RC U5035:A1 3.093e-03
*RC U5064:A3 4.058e-03
*RC U4293:A1 2.321e-03
*RC U4840:A1 2.888e-03
*RC U5055:A1 3.025e-03
*RC U5221:A1 2.368e-03
*RC U5274:A1 1.329e-03
*RC U7339:A2 2.865e-03
*RC U7347:A4 1.996e-03
*RC U7371:A4 2.370e-03
*END

*R_NET winst\[30\] 5.011e+01
*DRIVER winst\[30\]
*CELL NULL
*C2_R1_C1 2.506e+01 4.160e-04 2.506e+01 
*LOADS
*RC U4322:A4 1.941e-03
*RC U4380:A3 1.351e-03
*RC U4410:A3 7.659e-04
*RC U4434:A3 2.194e-03
*RC U4461:A1 2.931e-03
*RC U4485:A3 4.993e-03
*RC U4515:A1 4.436e-03
*RC U4542:A3 4.397e-03
*RC U4571:A3 2.131e-03
*RC U4596:A3 1.114e-03
*RC U4625:A1 1.756e-03
*RC U4682:A1 2.376e-03
*RC U4706:A3 3.473e-03
*RC U4736:A1 3.359e-03
*RC U4761:A3 4.993e-03
*RC U4791:A1 2.839e-03
*RC U4843:A3 3.090e-03
*RC U4898:A1 1.588e-03
*RC U4951:A1 4.101e-03
*RC U4975:A3 4.136e-03
*RC U5005:A3 3.921e-03
*RC U5059:A1 3.403e-03
*RC U5084:A1 3.013e-03
*RC U4412:A1 2.727e-03
*RC U4627:A1 3.837e-03
*RC U4738:A1 1.710e-03
*RC U4847:A1 2.763e-03
*RC U5173:A1 1.218e-03
*RC U5766:A2 1.240e-03
*RC U7338:A2 3.384e-03
*RC U7346:A5 2.252e-03
*RC U7368:A2 2.215e-03
*END

*R_NET winst\[29\] 4.664e+01
*DRIVER winst\[29\]
*CELL NULL
*C2_R1_C1 2.332e+01 3.685e-04 2.332e+01 
*LOADS
*RC U4321:A4 1.853e-03
*RC U4350:A4 1.384e-03
*RC U4375:A3 6.892e-04
*RC U4407:A3 4.497e-04
*RC U4432:A3 1.590e-03
*RC U4455:A1 2.555e-03
*RC U4481:A1 4.177e-03
*RC U4513:A3 3.999e-03
*RC U4536:A1 4.273e-03
*RC U4570:A1 1.677e-03
*RC U4623:A3 2.311e-03
*RC U4648:A3 1.335e-03
*RC U4674:A3 2.458e-03
*RC U4702:A1 3.566e-03
*RC U4734:A3 3.730e-03
*RC U4759:A3 4.314e-03
*RC U4811:A3 2.670e-03
*RC U4842:A1 1.485e-03
*RC U4868:A3 1.654e-03
*RC U4892:A3 1.252e-03
*RC U4919:A3 2.629e-03
*RC U4949:A3 3.048e-03
*RC U4973:A3 2.856e-03
*RC U5004:A1 3.599e-03
*RC U5026:A3 3.056e-03
*RC U5057:A3 3.401e-03
*RC U5080:A3 3.056e-03
*RC U4908:A1 3.489e-03
*RC U5287:A1 7.771e-04
*RC U7337:A2 2.655e-03
*RC U7345:A5 1.730e-03
*RC U7365:A2 1.959e-03
*END

*R_NET winst\[28\] 4.701e+01
*DRIVER winst\[28\]
*CELL NULL
*C2_R1_C1 2.351e+01 3.709e-04 2.351e+01 
*LOADS
*RC U4317:A4 1.410e-03
*RC U4349:A2 1.154e-03
*RC U4400:A3 7.846e-04
*RC U4428:A3 1.943e-03
*RC U4453:A1 3.886e-03
*RC U4479:A3 4.486e-03
*RC U4508:A3 4.255e-03
*RC U4535:A3 2.799e-03
*RC U4566:A3 1.692e-03
*RC U4618:A3 1.545e-03
*RC U4643:A3 1.072e-03
*RC U4672:A3 2.423e-03
*RC U4725:A3 3.367e-03
*RC U4755:A3 3.946e-03
*RC U4785:A3 2.944e-03
*RC U4809:A3 2.780e-03
*RC U4835:A3 2.654e-03
*RC U4864:A3 1.264e-03
*RC U4890:A3 1.594e-03
*RC U4917:A1 2.746e-03
*RC U4945:A3 3.164e-03
*RC U4968:A3 3.241e-03
*RC U4998:A1 3.257e-03
*RC U5024:A3 3.365e-03
*RC U4313:A1 3.149e-03
*RC U4370:A1 2.945e-03
*RC U5075:A1 3.837e-03
*RC U5293:A1 8.298e-04
*RC U5724:A1 1.840e-04
*RC U7336:A2 2.834e-03
*RC U7344:A5 1.959e-03
*RC U7362:A4 2.142e-03
*END

*R_NET winst\[27\] 5.048e+01
*DRIVER winst\[27\]
*CELL NULL
*C2_R1_C1 2.524e+01 4.142e-04 2.524e+01 
*LOADS
*RC U4312:A4 2.007e-03
*RC U4347:A2 1.153e-03
*RC U4369:A3 1.463e-03
*RC U4393:A3 8.483e-04
*RC U4426:A3 1.784e-03
*RC U4447:A3 4.139e-03
*RC U4475:A1 4.353e-03
*RC U4506:A3 4.634e-03
*RC U4529:A3 4.717e-03
*RC U4562:A3 2.084e-03
*RC U4586:A3 1.700e-03
*RC U4613:A3 2.284e-03
*RC U4642:A3 1.468e-03
*RC U4696:A3 3.622e-03
*RC U4723:A3 3.434e-03
*RC U4753:A3 4.872e-03
*RC U4781:A3 3.230e-03
*RC U4805:A3 2.434e-03
*RC U4829:A3 3.040e-03
*RC U4862:A3 1.530e-03
*RC U4884:A3 1.679e-03
*RC U4913:A1 2.783e-03
*RC U4943:A3 4.165e-03
*RC U4967:A3 4.857e-03
*RC U4992:A3 4.485e-03
*RC U5020:A3 4.102e-03
*RC U5044:A3 4.743e-03
*RC U5074:A3 3.564e-03
*RC U5138:A1 2.551e-03
*RC U7335:A2 3.682e-03
*RC U7343:A5 2.573e-03
*RC U7358:A4 2.788e-03
*END

*R_NET winst\[26\] 4.904e+01
*DRIVER winst\[26\]
*CELL NULL
*C2_R1_C1 2.452e+01 3.958e-04 2.452e+01 
*LOADS
*RC U4311:A4 2.278e-03
*RC U4335:A2 1.769e-03
*RC U4367:A3 1.265e-03
*RC U4391:A3 1.112e-03
*RC U4422:A3 2.029e-03
*RC U4445:A3 3.996e-03
*RC U4499:A3 3.915e-03
*RC U4527:A3 4.095e-03
*RC U4554:A3 2.239e-03
*RC U4584:A3 6.289e-04
*RC U4609:A3 1.975e-03
*RC U4636:A3 1.363e-03
*RC U4661:A3 2.629e-03
*RC U4719:A3 3.833e-03
*RC U4748:A3 4.668e-03
*RC U4773:A3 2.972e-03
*RC U4803:A3 2.691e-03
*RC U4881:A3 2.105e-03
*RC U4936:A3 4.214e-03
*RC U4963:A3 2.828e-03
*RC U4988:A3 3.984e-03
*RC U5019:A3 3.570e-03
*RC U5043:A3 4.616e-03
*RC U4325:A1 2.713e-03
*RC U4652:A1 2.874e-03
*RC U4763:A1 1.560e-03
*RC U4818:A1 2.290e-03
*RC U5087:A1 2.912e-03
*RC U5522:A1 3.735e-03
*RC U7334:A2 3.377e-03
*RC U7342:A4 2.365e-03
*RC U7356:A2 2.344e-03
*END

*R_NET winst\[25\] 4.590e+01
*DRIVER winst\[25\]
*CELL NULL
*C2_R1_C1 2.295e+01 3.552e-04 2.295e+01 
*LOADS
*RC U4309:A4 2.256e-03
*RC U4333:A2 1.496e-03
*RC U4366:A3 9.438e-04
*RC U4387:A3 4.720e-04
*RC U4417:A3 1.613e-03
*RC U4441:A3 3.541e-03
*RC U4469:A3 3.268e-03
*RC U4497:A3 3.512e-03
*RC U4526:A3 2.826e-03
*RC U4549:A3 1.235e-03
*RC U4580:A3 1.517e-03
*RC U4607:A3 1.341e-03
*RC U4657:A3 2.354e-03
*RC U4717:A3 2.928e-03
*RC U4743:A3 2.947e-03
*RC U4826:A3 2.650e-03
*RC U4907:A3 2.678e-03
*RC U4934:A3 3.140e-03
*RC U4961:A3 3.977e-03
*RC U4986:A3 3.911e-03
*RC U5014:A3 2.479e-03
*RC U5041:A3 3.977e-03
*RC U4331:A1 2.868e-03
*RC U4715:A1 3.177e-03
*RC U4769:A1 1.891e-03
*RC U4878:A1 2.080e-03
*RC U4932:A1 2.924e-03
*RC U5093:A1 3.263e-03
*RC U5203:A1 1.304e-03
*RC U7333:A2 3.088e-03
*RC U7341:A4 2.559e-03
*RC U7352:A4 2.368e-03
*END

*R_NET winst\[24\] 4.896e+01
*DRIVER winst\[24\]
*CELL NULL
*C2_R1_C1 2.448e+01 3.975e-04 2.448e+01 
*LOADS
*RC U4304:A3 2.274e-03
*RC U4328:A3 1.310e-03
*RC U4362:A3 8.944e-04
*RC U4386:A1 8.800e-04
*RC U4416:A3 1.999e-03
*RC U4439:A3 3.853e-03
*RC U4492:A3 4.384e-03
*RC U4521:A3 3.151e-03
*RC U4548:A1 2.029e-03
*RC U4603:A3 1.711e-03
*RC U4630:A1 1.597e-03
*RC U4655:A3 2.428e-03
*RC U4688:A3 3.701e-03
*RC U4713:A3 4.032e-03
*RC U4742:A3 4.013e-03
*RC U4766:A3 3.261e-03
*RC U4822:A1 2.723e-03
*RC U4850:A1 2.168e-03
*RC U4875:A3 3.055e-03
*RC U4930:A3 4.038e-03
*RC U4957:A3 4.159e-03
*RC U4981:A1 3.804e-03
*RC U5036:A3 4.670e-03
*RC U4337:A1 2.677e-03
*RC U4448:A1 4.065e-03
*RC U4664:A1 3.968e-03
*RC U4885:A1 2.621e-03
*RC U5317:A1 7.926e-04
*RC U5534:A1 3.818e-03
*RC U7332:A2 3.222e-03
*RC U7340:A5 2.410e-03
*RC U7350:A3 2.547e-03
*END

*R_NET winst\[23\] 4.587e+01
*DRIVER winst\[23\]
*CELL NULL
*C2_R1_C1 2.294e+01 3.729e-04 2.294e+01 
*LOADS
*RC U4324:A4 1.821e-03
*RC U4356:A4 1.868e-03
*RC U4411:A3 3.043e-04
*RC U4466:A3 2.631e-03
*RC U4516:A1 4.020e-03
*RC U4574:A3 1.708e-03
*RC U4601:A1 1.437e-03
*RC U4626:A3 2.460e-03
*RC U4654:A3 1.188e-03
*RC U4687:A1 2.243e-03
*RC U4708:A3 2.724e-03
*RC U4737:A1 2.863e-03
*RC U4792:A3 3.026e-03
*RC U4817:A3 2.725e-03
*RC U4874:A3 2.056e-03
*RC U4904:A1 1.783e-03
*RC U4925:A1 2.177e-03
*RC U4979:A3 3.391e-03
*RC U5011:A1 3.530e-03
*RC U5032:A3 2.863e-03
*RC U5064:A1 4.027e-03
*RC U5086:A1 2.560e-03
*RC U4568:A1 3.426e-03
*RC U4787:A1 2.210e-03
*RC U4947:A1 3.646e-03
*RC U5379:A1 3.281e-03
*RC U5490:A1 4.094e-03
*RC U5597:A1 2.059e-03
*RC U5705:A2 3.710e-04
*RC U7347:A5 1.965e-03
*RC U7371:A2 2.361e-03
*END

*R_NET winst\[22\] 4.829e+01
*DRIVER winst\[22\]
*CELL NULL
*C2_R1_C1 2.414e+01 3.987e-04 2.414e+01 
*LOADS
*RC U4323:A4 2.392e-03
*RC U4355:A4 1.620e-03
*RC U4433:A3 1.871e-03
*RC U4462:A3 2.524e-03
*RC U4514:A3 4.213e-03
*RC U4573:A3 1.910e-03
*RC U4624:A3 1.896e-03
*RC U4650:A3 1.321e-03
*RC U4683:A3 2.047e-03
*RC U4735:A3 3.520e-03
*RC U4760:A3 4.451e-03
*RC U4791:A3 2.701e-03
*RC U4815:A3 2.632e-03
*RC U4870:A3 1.559e-03
*RC U4899:A3 1.364e-03
*RC U4923:A3 3.269e-03
*RC U4950:A3 4.121e-03
*RC U5007:A3 3.755e-03
*RC U5030:A3 2.487e-03
*RC U5058:A3 3.328e-03
*RC U4299:A1 2.981e-03
*RC U4517:A1 4.037e-03
*RC U4793:A1 2.751e-03
*RC U5061:A1 3.338e-03
*RC U5281:A1 1.049e-03
*RC U5386:A1 4.176e-03
*RC U5496:A1 4.694e-03
*RC U5658:A1 1.151e-04
*RC U5711:A2 1.378e-03
*RC U7346:A3 2.191e-03
*RC U7367:A4 2.520e-03
*END

*R_NET winst\[21\] 4.571e+01
*DRIVER winst\[21\]
*CELL NULL
*C2_R1_C1 2.285e+01 3.653e-04 2.285e+01 
*LOADS
*RC U4318:A4 1.789e-03
*RC U4353:A4 1.385e-03
*RC U4402:A3 5.899e-04
*RC U4460:A3 2.110e-03
*RC U4481:A3 4.067e-03
*RC U4509:A3 4.011e-03
*RC U4540:A3 4.255e-03
*RC U4570:A3 1.613e-03
*RC U4595:A3 9.461e-04
*RC U4619:A3 2.012e-03
*RC U4681:A3 2.680e-03
*RC U4702:A3 3.467e-03
*RC U4726:A3 3.823e-03
*RC U4789:A3 3.393e-03
*RC U4814:A3 2.456e-03
*RC U4839:A3 2.119e-03
*RC U4865:A3 1.545e-03
*RC U4897:A3 1.027e-03
*RC U4946:A3 3.185e-03
*RC U4970:A3 2.959e-03
*RC U4999:A3 3.146e-03
*RC U4306:A1 2.941e-03
*RC U4364:A1 3.048e-03
*RC U4418:A1 3.086e-03
*RC U4633:A1 2.874e-03
*RC U4959:A1 4.199e-03
*RC U5179:A1 1.223e-03
*RC U5610:A1 1.426e-03
*RC U5717:A2 4.308e-04
*RC U7345:A3 1.711e-03
*RC U7364:A4 2.240e-03
*END

*R_NET winst\[20\] 4.627e+01
*DRIVER winst\[20\]
*CELL NULL
*C2_R1_C1 2.313e+01 3.726e-04 2.313e+01 
*LOADS
*RC U4316:A4 1.655e-03
*RC U4349:A4 1.171e-03
*RC U4374:A2 5.111e-04
*RC U4401:A3 7.426e-04
*RC U4453:A3 3.779e-03
*RC U4507:A3 4.271e-03
*RC U4534:A3 2.716e-03
*RC U4591:A3 8.656e-04
*RC U4614:A3 2.290e-03
*RC U4673:A3 2.108e-03
*RC U4700:A3 3.569e-03
*RC U4724:A3 3.417e-03
*RC U4754:A3 3.617e-03
*RC U4782:A3 3.039e-03
*RC U4891:A3 1.387e-03
*RC U4917:A3 2.725e-03
*RC U4944:A3 3.172e-03
*RC U4969:A3 3.048e-03
*RC U4998:A3 3.229e-03
*RC U5025:A3 3.598e-03
*RC U5050:A3 2.952e-03
*RC U5078:A3 3.066e-03
*RC U4750:A1 1.237e-03
*RC U4806:A1 2.523e-03
*RC U4860:A1 3.029e-03
*RC U5185:A1 1.218e-03
*RC U5345:A1 1.629e-03
*RC U5509:A1 4.399e-03
*RC U5616:A1 1.872e-03
*RC U7344:A3 1.962e-03
*RC U7362:A2 2.167e-03
*END

*R_NET winst\[19\] 4.821e+01
*DRIVER winst\[19\]
*CELL NULL
*C2_R1_C1 2.411e+01 3.978e-04 2.411e+01 
*LOADS
*RC U4315:A4 2.225e-03
*RC U4347:A4 1.118e-03
*RC U4372:A2 1.226e-03
*RC U4399:A3 1.298e-04
*RC U4423:A3 1.626e-03
*RC U4452:A3 3.866e-03
*RC U4475:A3 4.132e-03
*RC U4500:A3 4.567e-03
*RC U4533:A3 4.577e-03
*RC U4555:A3 1.892e-03
*RC U4671:A3 2.255e-03
*RC U4720:A3 3.568e-03
*RC U4749:A3 4.369e-03
*RC U4774:A3 3.728e-03
*RC U4859:A3 1.413e-03
*RC U4889:A3 1.545e-03
*RC U4913:A3 2.629e-03
*RC U4964:A3 3.972e-03
*RC U4989:A3 4.298e-03
*RC U5023:A3 4.189e-03
*RC U5049:A3 4.505e-03
*RC U4319:A1 4.038e-03
*RC U4593:A1 4.104e-03
*RC U4812:A1 2.784e-03
*RC U4866:A1 2.484e-03
*RC U5081:A1 3.636e-03
*RC U5191:A1 1.482e-03
*RC U5246:A1 2.320e-03
*RC U5299:A1 1.190e-03
*RC U7343:A3 2.474e-03
*RC U7359:A2 2.412e-03
*END

*R_NET winst\[18\] 4.795e+01
*DRIVER winst\[18\]
*CELL NULL
*C2_R1_C1 2.397e+01 4.017e-04 2.397e+01 
*LOADS
*RC U4310:A4 2.284e-03
*RC U4392:A3 9.166e-04
*RC U4421:A1 1.914e-03
*RC U4446:A1 4.375e-03
*RC U4473:A3 3.740e-03
*RC U4528:A3 3.955e-03
*RC U4554:A1 2.188e-03
*RC U4585:A1 5.184e-04
*RC U4608:A3 2.145e-03
*RC U4638:A3 1.614e-03
*RC U4662:A1 2.559e-03
*RC U4694:A3 2.845e-03
*RC U4718:A1 3.697e-03
*RC U4772:A3 3.072e-03
*RC U4804:A1 2.777e-03
*RC U4827:A3 2.413e-03
*RC U4858:A3 2.019e-03
*RC U4883:A1 1.859e-03
*RC U4911:A3 2.627e-03
*RC U4935:A3 4.288e-03
*RC U4962:A1 2.801e-03
*RC U4988:A1 3.931e-03
*RC U5018:A3 3.294e-03
*RC U5043:A1 4.549e-03
*RC U5071:A1 2.918e-03
*RC U4977:A1 4.639e-03
*RC U5468:A1 3.836e-03
*RC U5736:A2 1.242e-03
*RC U5790:A2 1.846e-03
*RC U7342:A5 2.301e-03
*RC U7355:A4 2.639e-03
*END

*R_NET winst\[17\] 4.475e+01
*DRIVER winst\[17\]
*CELL NULL
*C2_R1_C1 2.237e+01 3.532e-04 2.237e+01 
*LOADS
*RC U4305:A4 2.206e-03
*RC U4333:A4 1.470e-03
*RC U4363:A4 1.118e-03
*RC U4390:A3 3.027e-04
*RC U4441:A1 3.438e-03
*RC U4469:A1 3.173e-03
*RC U4493:A3 3.468e-03
*RC U4522:A3 3.046e-03
*RC U4552:A3 1.292e-03
*RC U4583:A3 1.246e-03
*RC U4604:A3 1.827e-03
*RC U4632:A3 1.525e-03
*RC U4660:A3 2.356e-03
*RC U4690:A3 2.990e-03
*RC U4746:A3 2.595e-03
*RC U4771:A3 3.165e-03
*RC U4802:A3 2.045e-03
*RC U4823:A3 2.885e-03
*RC U4856:A3 1.699e-03
*RC U4880:A3 2.664e-03
*RC U4958:A3 3.665e-03
*RC U4982:A3 4.069e-03
*RC U5017:A3 2.773e-03
*RC U5041:A1 3.918e-03
*RC U5067:A3 2.993e-03
*RC U4605:A1 3.483e-03
*RC U4658:A1 2.726e-03
*RC U5039:A1 3.180e-03
*RC U5634:A1 1.506e-03
*RC U7341:A5 2.493e-03
*RC U7352:A2 2.334e-03
*END

*R_NET winst\[16\] 4.802e+01
*DRIVER winst\[16\]
*CELL NULL
*C2_R1_C1 2.401e+01 4.005e-04 2.401e+01 
*LOADS
*RC U4303:A4 2.218e-03
*RC U4329:A4 1.330e-03
*RC U4360:A4 1.168e-03
*RC U4385:A3 8.186e-04
*RC U4440:A1 3.656e-03
*RC U4467:A3 3.845e-03
*RC U4491:A1 4.472e-03
*RC U4547:A3 2.261e-03
*RC U4579:A1 8.495e-04
*RC U4656:A1 2.407e-03
*RC U4712:A1 3.851e-03
*RC U4767:A1 3.479e-03
*RC U4797:A1 2.517e-03
*RC U4821:A3 2.463e-03
*RC U4876:A1 2.756e-03
*RC U4905:A3 3.614e-03
*RC U4981:A3 3.743e-03
*RC U5012:A3 3.811e-03
*RC U5065:A1 2.784e-03
*RC U4394:A1 4.236e-03
*RC U4556:A1 4.005e-03
*RC U4611:A1 4.214e-03
*RC U4775:A1 1.908e-03
*RC U4990:A1 4.093e-03
*RC U5099:A1 3.508e-03
*RC U5209:A1 1.093e-03
*RC U5264:A1 1.997e-03
*RC U5423:A1 3.369e-03
*RC U5640:A1 1.916e-03
*RC U7340:A3 2.386e-03
*RC U7350:A2 2.567e-03
*END

*R_NET winst\[15\] 4.540e+01
*DRIVER winst\[15\]
*CELL NULL
*C2_R1_C1 2.270e+01 3.729e-04 2.270e+01 
*LOADS
*RC U4324:A2 1.799e-03
*RC U4359:A4 1.722e-03
*RC U4381:A4 4.175e-04
*RC U4414:A2 7.044e-04
*RC U4435:A3 1.658e-03
*RC U4463:A3 2.747e-03
*RC U4490:A3 3.854e-03
*RC U4516:A3 3.994e-03
*RC U4543:A3 3.082e-03
*RC U4577:A3 1.723e-03
*RC U4601:A3 1.434e-03
*RC U4629:A3 2.111e-03
*RC U4651:A3 1.339e-03
*RC U4687:A3 2.233e-03
*RC U4711:A3 2.615e-03
*RC U4737:A3 2.847e-03
*RC U4762:A3 3.575e-03
*RC U4795:A3 2.831e-03
*RC U4820:A3 2.458e-03
*RC U4846:A3 2.281e-03
*RC U4871:A3 1.935e-03
*RC U4904:A3 1.777e-03
*RC U4928:A3 2.502e-03
*RC U4952:A3 3.350e-03
*RC U5011:A3 3.453e-03
*RC U5035:A3 2.985e-03
*RC U5086:A3 2.491e-03
*RC U4351:A1 4.082e-03
*RC U4510:A1 3.426e-03
*RC U7370:A3 2.621e-03
*END

*R_NET winst\[14\] 4.539e+01
*DRIVER winst\[14\]
*CELL NULL
*C2_R1_C1 2.270e+01 3.785e-04 2.270e+01 
*LOADS
*RC U4322:A2 1.817e-03
*RC U4355:A2 1.548e-03
*RC U4379:A4 1.296e-03
*RC U4408:A4 4.897e-04
*RC U4433:A1 1.754e-03
*RC U4462:A1 2.367e-03
*RC U4486:A3 4.015e-03
*RC U4514:A1 3.956e-03
*RC U4541:A3 3.782e-03
*RC U4573:A1 1.790e-03
*RC U4597:A3 9.592e-04
*RC U4649:A3 9.004e-04
*RC U4683:A1 1.919e-03
*RC U4707:A3 3.185e-03
*RC U4735:A1 3.304e-03
*RC U4816:A3 2.618e-03
*RC U4845:A3 1.751e-03
*RC U4869:A3 1.776e-03
*RC U4899:A1 1.277e-03
*RC U4924:A3 3.247e-03
*RC U4950:A1 3.915e-03
*RC U4974:A3 3.574e-03
*RC U5007:A1 3.571e-03
*RC U5031:A3 2.838e-03
*RC U5059:A3 3.107e-03
*RC U5085:A3 2.641e-03
*RC U4901:A1 2.713e-03
*RC U4953:A1 4.257e-03
*RC U5228:A1 1.637e-03
*RC U7368:A3 2.024e-03
*END

*R_NET winst\[13\] 4.399e+01
*DRIVER winst\[13\]
*CELL NULL
*C2_R1_C1 2.199e+01 3.613e-04 2.199e+01 
*LOADS
*RC U4318:A2 1.763e-03
*RC U4353:A2 1.375e-03
*RC U4378:A4 4.857e-04
*RC U4429:A3 1.410e-03
*RC U4455:A3 2.358e-03
*RC U4484:A3 3.649e-03
*RC U4509:A1 3.835e-03
*RC U4536:A3 3.983e-03
*RC U4592:A3 6.487e-04
*RC U4645:A3 1.082e-03
*RC U4681:A1 2.555e-03
*RC U4705:A3 3.178e-03
*RC U4726:A1 3.654e-03
*RC U4756:A3 3.829e-03
*RC U4789:A1 3.240e-03
*RC U4814:A1 2.339e-03
*RC U4842:A3 1.345e-03
*RC U4865:A1 1.463e-03
*RC U4897:A1 1.046e-03
*RC U4922:A3 2.383e-03
*RC U4946:A1 3.121e-03
*RC U4970:A1 2.904e-03
*RC U5004:A3 3.431e-03
*RC U5029:A3 3.231e-03
*RC U5054:A3 2.878e-03
*RC U5083:A3 2.742e-03
*RC U5234:A1 2.069e-03
*RC U5339:A1 1.814e-03
*RC U5664:A2 6.559e-04
*RC U7365:A3 1.876e-03
*END

*R_NET winst\[12\] 4.388e+01
*DRIVER winst\[12\]
*CELL NULL
*C2_R1_C1 2.194e+01 3.669e-04 2.194e+01 
*LOADS
*RC U4316:A2 1.575e-03
*RC U4374:A4 4.704e-04
*RC U4427:A3 1.518e-03
*RC U4454:A1 3.417e-03
*RC U4480:A1 3.884e-03
*RC U4507:A1 4.064e-03
*RC U4566:A1 1.546e-03
*RC U4590:A3 6.962e-04
*RC U4618:A1 1.508e-03
*RC U4643:A1 1.067e-03
*RC U4673:A1 2.013e-03
*RC U4701:A1 3.074e-03
*RC U4724:A1 3.253e-03
*RC U4785:A1 2.715e-03
*RC U4810:A1 2.976e-03
*RC U4838:A1 2.381e-03
*RC U4863:A1 1.049e-03
*RC U4891:A1 1.329e-03
*RC U4918:A1 2.245e-03
*RC U4944:A1 3.029e-03
*RC U4968:A1 3.091e-03
*RC U4993:A3 2.707e-03
*RC U5025:A1 3.433e-03
*RC U5053:A1 3.090e-03
*RC U5078:A1 2.929e-03
*RC U4965:A1 3.746e-03
*RC U5399:A1 2.763e-03
*RC U5670:A2 7.364e-04
*RC U5778:A2 1.224e-03
*RC U7361:A3 2.251e-03
*END

*R_NET winst\[11\] 4.532e+01
*DRIVER winst\[11\]
*CELL NULL
*C2_R1_C1 2.266e+01 3.845e-04 2.266e+01 
*LOADS
*RC U4312:A2 1.837e-03
*RC U4372:A4 1.159e-03
*RC U4399:A2 1.455e-04
*RC U4423:A1 1.542e-03
*RC U4447:A1 3.704e-03
*RC U4478:A1 3.926e-03
*RC U4500:A1 4.307e-03
*RC U4529:A1 4.223e-03
*RC U4562:A1 1.858e-03
*RC U4589:A1 1.559e-03
*RC U4610:A3 2.345e-03
*RC U4639:A1 1.602e-03
*RC U4671:A1 2.133e-03
*RC U4699:A1 3.007e-03
*RC U4720:A1 3.368e-03
*RC U4781:A1 2.887e-03
*RC U4808:A1 2.423e-03
*RC U4834:A1 2.465e-03
*RC U4859:A1 1.350e-03
*RC U4889:A1 1.466e-03
*RC U4916:A1 2.180e-03
*RC U4937:A3 3.684e-03
*RC U4964:A1 3.755e-03
*RC U4992:A1 4.080e-03
*RC U5077:A3 3.646e-03
*RC U4376:A1 4.229e-03
*RC U4430:A1 3.916e-03
*RC U4971:A1 4.204e-03
*RC U5784:A2 9.702e-04
*RC U7359:A3 2.232e-03
*END

*R_NET winst\[10\] 4.730e+01
*DRIVER winst\[10\]
*CELL NULL
*C2_R1_C1 2.365e+01 4.001e-04 2.365e+01 
*LOADS
*RC U4310:A2 2.290e-03
*RC U4335:A4 1.725e-03
*RC U4368:A4 9.398e-04
*RC U4392:A2 9.620e-04
*RC U4421:A3 1.862e-03
*RC U4446:A3 4.294e-03
*RC U4474:A3 3.461e-03
*RC U4498:A3 3.858e-03
*RC U4527:A1 3.923e-03
*RC U4553:A3 2.249e-03
*RC U4636:A1 1.376e-03
*RC U4662:A3 2.499e-03
*RC U4695:A3 2.452e-03
*RC U4718:A3 3.624e-03
*RC U4747:A3 4.081e-03
*RC U4773:A1 2.840e-03
*RC U4804:A3 2.715e-03
*RC U4828:A3 2.297e-03
*RC U4857:A3 1.967e-03
*RC U4883:A3 1.830e-03
*RC U4912:A3 2.615e-03
*RC U4962:A3 2.761e-03
*RC U4987:A3 3.897e-03
*RC U5071:A3 2.876e-03
*RC U4382:A1 4.673e-03
*RC U4436:A1 3.394e-03
*RC U4599:A1 4.380e-03
*RC U5252:A1 2.066e-03
*RC U5305:A1 4.331e-04
*RC U7356:A3 2.262e-03
*END

*R_NET winst\[9\] 4.250e+01
*DRIVER winst\[9\]
*CELL NULL
*C2_R1_C1 2.125e+01 3.485e-04 2.125e+01 
*LOADS
*RC U4305:A2 2.118e-03
*RC U4420:A3 1.474e-03
*RC U4444:A1 2.686e-03
*RC U4472:A1 3.027e-03
*RC U4493:A1 3.288e-03
*RC U4552:A1 1.222e-03
*RC U4583:A1 1.178e-03
*RC U4607:A1 1.294e-03
*RC U4632:A1 1.486e-03
*RC U4660:A1 2.232e-03
*RC U4693:A1 2.677e-03
*RC U4714:A3 2.477e-03
*RC U4743:A1 2.712e-03
*RC U4771:A1 3.000e-03
*RC U4798:A3 2.155e-03
*RC U4826:A1 2.507e-03
*RC U4852:A1 1.459e-03
*RC U4880:A1 2.567e-03
*RC U4910:A1 2.480e-03
*RC U4931:A3 3.147e-03
*RC U4986:A1 3.674e-03
*RC U5017:A1 2.671e-03
*RC U5070:A3 2.664e-03
*RC U4388:A1 3.729e-03
*RC U4550:A1 3.876e-03
*RC U5417:A1 2.742e-03
*RC U5688:A2 8.651e-05
*RC U5742:A2 7.798e-04
*RC U5796:A2 1.513e-03
*RC U7353:A3 2.408e-03
*END

*R_NET winst\[8\] 4.735e+01
*DRIVER winst\[8\]
*CELL NULL
*C2_R1_C1 2.368e+01 3.997e-04 2.368e+01 
*LOADS
*RC U4303:A2 2.183e-03
*RC U4329:A2 1.301e-03
*RC U4386:A4 8.592e-04
*RC U4415:A3 1.788e-03
*RC U4440:A3 3.620e-03
*RC U4468:A3 3.572e-03
*RC U4491:A3 4.425e-03
*RC U4520:A3 3.745e-03
*RC U4548:A3 1.942e-03
*RC U4579:A3 7.915e-04
*RC U4602:A3 1.986e-03
*RC U4630:A3 1.523e-03
*RC U4656:A3 2.387e-03
*RC U4689:A3 3.454e-03
*RC U4712:A3 3.813e-03
*RC U4741:A3 3.920e-03
*RC U4767:A3 3.446e-03
*RC U4797:A3 2.495e-03
*RC U4822:A3 2.626e-03
*RC U4850:A3 2.077e-03
*RC U4876:A3 2.674e-03
*RC U4906:A3 3.780e-03
*RC U4929:A3 4.091e-03
*RC U4956:A3 3.703e-03
*RC U5013:A3 3.750e-03
*RC U5037:A3 4.333e-03
*RC U5065:A3 2.701e-03
*RC U4501:A1 3.660e-03
*RC U5748:A2 7.902e-04
*RC U7349:A3 2.741e-03
*END

*R_NET winst\[7\] 4.362e+01
*DRIVER winst\[7\]
*CELL NULL
*C2_R1_C1 2.181e+01 3.741e-04 2.181e+01 
*LOADS
*RC U4384:A2 4.308e-04
*RC U4435:A2 1.586e-03
*RC U4466:A1 2.495e-03
*RC U4490:A1 3.683e-03
*RC U4519:A1 3.594e-03
*RC U4543:A1 2.941e-03
*RC U4598:A3 1.231e-03
*RC U4629:A1 2.081e-03
*RC U4684:A1 2.081e-03
*RC U4711:A1 2.493e-03
*RC U4740:A1 2.698e-03
*RC U4762:A1 3.415e-03
*RC U4820:A1 2.342e-03
*RC U4849:A1 2.065e-03
*RC U4900:A1 1.482e-03
*RC U4928:A1 2.385e-03
*RC U4955:A1 3.145e-03
*RC U4976:A1 2.885e-03
*RC U5060:A3 3.767e-03
*RC U5089:A3 2.044e-03
*RC U4405:A1 2.941e-03
*RC U4458:A1 3.371e-03
*RC U4731:A1 1.749e-03
*RC U4895:A1 2.945e-03
*RC U5166:A1 1.192e-03
*RC U5327:A1 1.911e-03
*RC U5652:A2 4.379e-04
*RC U5760:A2 1.765e-03
*RC U5812:A1 1.951e-03
*END

*R_NET winst\[6\] 4.377e+01
*DRIVER winst\[6\]
*CELL NULL
*C2_R1_C1 2.188e+01 3.728e-04 2.188e+01 
*LOADS
*RC U4354:A4 1.539e-03
*RC U4380:A2 1.189e-03
*RC U4410:A2 6.771e-04
*RC U4461:A3 2.560e-03
*RC U4486:A1 3.904e-03
*RC U4515:A3 3.880e-03
*RC U4541:A1 3.679e-03
*RC U4597:A1 9.603e-04
*RC U4625:A3 1.520e-03
*RC U4649:A1 8.649e-04
*RC U4682:A3 2.072e-03
*RC U4707:A1 3.104e-03
*RC U4736:A3 2.935e-03
*RC U4760:A1 4.065e-03
*RC U4790:A3 2.658e-03
*RC U4816:A1 2.559e-03
*RC U4845:A1 1.723e-03
*RC U4869:A1 1.708e-03
*RC U4898:A3 1.380e-03
*RC U4924:A1 3.126e-03
*RC U4951:A3 3.579e-03
*RC U4974:A1 3.441e-03
*RC U5031:A1 2.731e-03
*RC U5084:A3 2.624e-03
*RC U4357:A1 3.102e-03
*RC U4464:A1 3.230e-03
*RC U5333:A1 1.962e-03
*RC U5604:A2 1.705e-03
*RC U5818:A1 1.824e-03
*END

*R_NET winst\[5\] 4.184e+01
*DRIVER winst\[5\]
*CELL NULL
*C2_R1_C1 2.092e+01 3.498e-04 2.092e+01 
*LOADS
*RC U4378:A2 4.439e-04
*RC U4407:A2 3.488e-04
*RC U4429:A2 1.338e-03
*RC U4460:A1 1.892e-03
*RC U4484:A1 3.454e-03
*RC U4513:A1 3.522e-03
*RC U4567:A3 1.712e-03
*RC U4595:A1 8.266e-04
*RC U4623:A1 2.173e-03
*RC U4645:A1 1.075e-03
*RC U4705:A1 3.007e-03
*RC U4734:A1 3.282e-03
*RC U4756:A1 3.625e-03
*RC U4786:A3 3.130e-03
*RC U4892:A1 1.099e-03
*RC U4922:A1 2.251e-03
*RC U4949:A1 2.835e-03
*RC U5029:A1 3.117e-03
*RC U5057:A1 3.151e-03
*RC U5080:A1 2.842e-03
*RC U4470:A1 3.219e-03
*RC U4524:A1 2.571e-03
*RC U4744:A1 1.561e-03
*RC U4800:A1 1.884e-03
*RC U4854:A1 2.334e-03
*RC U5126:A1 2.069e-03
*RC U5393:A1 3.716e-03
*RC U5772:A2 1.292e-03
*RC U5824:A1 1.507e-03
*END

*R_NET winst\[4\] 4.305e+01
*DRIVER winst\[4\]
*CELL NULL
*C2_R1_C1 2.153e+01 3.599e-04 2.153e+01 
*LOADS
*RC U4348:A4 1.278e-03
*RC U4373:A4 5.420e-04
*RC U4401:A2 7.258e-04
*RC U4427:A2 1.513e-03
*RC U4454:A3 3.366e-03
*RC U4480:A3 3.826e-03
*RC U4508:A1 3.875e-03
*RC U4534:A1 2.551e-03
*RC U4563:A3 1.827e-03
*RC U4591:A1 8.281e-04
*RC U4644:A3 1.153e-03
*RC U4672:A1 2.197e-03
*RC U4701:A3 3.028e-03
*RC U4725:A1 3.061e-03
*RC U4754:A1 3.389e-03
*RC U4810:A3 2.932e-03
*RC U4838:A3 2.304e-03
*RC U4863:A3 9.930e-04
*RC U4890:A1 1.437e-03
*RC U4918:A3 2.170e-03
*RC U4945:A1 2.956e-03
*RC U5053:A3 3.001e-03
*RC U5079:A3 2.603e-03
*RC U4424:A1 3.226e-03
*RC U4476:A1 2.951e-03
*RC U4530:A1 3.125e-03
*RC U4914:A1 2.944e-03
*RC U5240:A1 2.030e-03
*RC U5830:A1 1.555e-03
*END

*R_NET winst\[3\] 4.500e+01
*DRIVER winst\[3\]
*CELL NULL
*C2_R1_C1 2.250e+01 3.894e-04 2.250e+01 
*LOADS
*RC U4336:A4 1.117e-03
*RC U4452:A1 3.554e-03
*RC U4478:A3 3.833e-03
*RC U4506:A1 4.051e-03
*RC U4589:A3 1.477e-03
*RC U4613:A1 2.160e-03
*RC U4639:A3 1.635e-03
*RC U4663:A3 1.799e-03
*RC U4699:A3 2.918e-03
*RC U4723:A1 2.980e-03
*RC U4749:A1 4.024e-03
*RC U4808:A3 2.337e-03
*RC U4834:A3 2.495e-03
*RC U4916:A3 2.095e-03
*RC U4943:A1 3.839e-03
*RC U5023:A1 4.004e-03
*RC U5049:A1 4.299e-03
*RC U5074:A1 3.303e-03
*RC U4482:A1 4.109e-03
*RC U4537:A1 4.273e-03
*RC U4703:A1 1.462e-03
*RC U4757:A1 1.275e-03
*RC U4920:A1 3.376e-03
*RC U5351:A1 2.023e-03
*RC U5405:A1 4.251e-03
*RC U5622:A2 1.515e-03
*RC U5676:A2 5.803e-04
*RC U5730:A2 1.020e-03
*RC U5836:A1 1.945e-03
*END

*R_NET winst\[2\] 4.617e+01
*DRIVER winst\[2\]
*CELL NULL
*C2_R1_C1 2.309e+01 4.066e-04 2.309e+01 
*LOADS
*RC U4334:A4 2.028e-03
*RC U4368:A2 8.956e-04
*RC U4445:A1 3.710e-03
*RC U4474:A1 3.351e-03
*RC U4499:A1 3.634e-03
*RC U4585:A3 4.426e-04
*RC U4609:A1 1.950e-03
*RC U4661:A1 2.423e-03
*RC U4695:A1 2.366e-03
*RC U4719:A1 3.557e-03
*RC U4747:A1 3.955e-03
*RC U4828:A1 2.216e-03
*RC U4857:A1 1.894e-03
*RC U4912:A1 2.526e-03
*RC U4936:A1 4.059e-03
*RC U5019:A1 3.453e-03
*RC U5042:A3 4.717e-03