*SPEF "IEEE 1481-1999"
*DESIGN "picorv32"
*DATE "Sun Dec 13 20:00:41 2020"
*VENDOR "SYNOPSYS INC"
*PROGRAM "Synopsys Design Compiler cmos"
*VERSION "L-2016.03-SP5"
*DESIGN_FLOW "SYNTHESIS"
*DIVIDER /
*DELIMITER :
*BUS_DELIMITER []
*T_UNIT 1.0 NS
*C_UNIT 0.0010 PF
*R_UNIT 1000.0 KOHM
*L_UNIT 1.0 HENRY

*PORTS

clk I *L 0.000e+00 *S 0.000e+00 0.000e+00 
resetn I *L 0.000e+00 *S 0.000e+00 0.000e+00 
trap O *L 0.000e+00 *S 3.887e-02 5.438e-02 
mem_valid O *L 0.000e+00 *S 3.463e-02 5.081e-02 
mem_instr O *L 0.000e+00 *S 1.127e-02 1.465e-02 
mem_ready I *L 0.000e+00 *S 0.000e+00 0.000e+00 
mem_addr\[31\] O *L 0.000e+00 *S 8.037e-03 1.030e-02 
mem_addr\[30\] O *L 0.000e+00 *S 1.044e-02 1.353e-02 
mem_addr\[29\] O *L 0.000e+00 *S 1.288e-02 1.683e-02 
mem_addr\[28\] O *L 0.000e+00 *S 1.105e-02 1.435e-02 
mem_addr\[27\] O *L 0.000e+00 *S 1.243e-02 1.621e-02 
mem_addr\[26\] O *L 0.000e+00 *S 1.004e-02 1.300e-02 
mem_addr\[25\] O *L 0.000e+00 *S 1.143e-02 1.486e-02 
mem_addr\[24\] O *L 0.000e+00 *S 1.533e-02 2.040e-02 
mem_addr\[23\] O *L 0.000e+00 *S 1.103e-02 1.432e-02 
mem_addr\[22\] O *L 0.000e+00 *S 8.521e-03 1.095e-02 
mem_addr\[21\] O *L 0.000e+00 *S 1.423e-02 1.880e-02 
mem_addr\[20\] O *L 0.000e+00 *S 8.677e-03 1.116e-02 
mem_addr\[19\] O *L 0.000e+00 *S 1.254e-02 1.635e-02 
mem_addr\[18\] O *L 0.000e+00 *S 7.033e-03 8.950e-03 
mem_addr\[17\] O *L 0.000e+00 *S 1.439e-02 1.904e-02 
mem_addr\[16\] O *L 0.000e+00 *S 1.200e-02 1.563e-02 
mem_addr\[15\] O *L 0.000e+00 *S 1.003e-02 1.298e-02 
mem_addr\[14\] O *L 0.000e+00 *S 1.494e-02 1.983e-02 
mem_addr\[13\] O *L 0.000e+00 *S 1.329e-02 1.743e-02 
mem_addr\[12\] O *L 0.000e+00 *S 1.195e-02 1.556e-02 
mem_addr\[11\] O *L 0.000e+00 *S 1.186e-02 1.543e-02 
mem_addr\[10\] O *L 0.000e+00 *S 8.831e-03 1.136e-02 
mem_addr\[9\] O *L 0.000e+00 *S 1.276e-02 1.664e-02 
mem_addr\[8\] O *L 0.000e+00 *S 1.576e-02 2.103e-02 
mem_addr\[7\] O *L 0.000e+00 *S 1.567e-02 2.090e-02 
mem_addr\[6\] O *L 0.000e+00 *S 2.140e-02 2.926e-02 
mem_addr\[5\] O *L 0.000e+00 *S 1.794e-02 2.421e-02 
mem_addr\[4\] O *L 0.000e+00 *S 8.425e-03 1.082e-02 
mem_addr\[3\] O *L 0.000e+00 *S 8.030e-03 1.029e-02 
mem_addr\[2\] O *L 0.000e+00 *S 8.952e-03 1.153e-02 
mem_addr\[1\] O *L 0.000e+00 *S 0.000e+00 0.000e+00 
mem_addr\[0\] O *L 0.000e+00 *S 0.000e+00 0.000e+00 
mem_wdata\[31\] O *L 0.000e+00 *S 1.435e-02 1.898e-02 
mem_wdata\[30\] O *L 0.000e+00 *S 6.354e-03 8.068e-03 
mem_wdata\[29\] O *L 0.000e+00 *S 7.541e-03 9.629e-03 
mem_wdata\[28\] O *L 0.000e+00 *S 9.310e-03 1.201e-02 
mem_wdata\[27\] O *L 0.000e+00 *S 2.769e-02 3.708e-02 
mem_wdata\[26\] O *L 0.000e+00 *S 8.154e-03 1.045e-02 
mem_wdata\[25\] O *L 0.000e+00 *S 1.077e-02 1.397e-02 
mem_wdata\[24\] O *L 0.000e+00 *S 8.375e-03 1.075e-02 
mem_wdata\[23\] O *L 0.000e+00 *S 1.105e-02 1.435e-02 
mem_wdata\[22\] O *L 0.000e+00 *S 1.396e-02 1.840e-02 
mem_wdata\[21\] O *L 0.000e+00 *S 1.175e-02 1.529e-02 
mem_wdata\[20\] O *L 0.000e+00 *S 7.937e-03 1.016e-02 
mem_wdata\[19\] O *L 0.000e+00 *S 9.274e-03 1.196e-02 
mem_wdata\[18\] O *L 0.000e+00 *S 1.158e-02 1.506e-02 
mem_wdata\[17\] O *L 0.000e+00 *S 1.020e-02 1.320e-02 
mem_wdata\[16\] O *L 0.000e+00 *S 1.080e-02 1.402e-02 
mem_wdata\[15\] O *L 0.000e+00 *S 1.274e-02 1.662e-02 
mem_wdata\[14\] O *L 0.000e+00 *S 1.240e-02 1.617e-02 
mem_wdata\[13\] O *L 0.000e+00 *S 8.404e-03 1.079e-02 
mem_wdata\[12\] O *L 0.000e+00 *S 1.045e-02 1.354e-02 
mem_wdata\[11\] O *L 0.000e+00 *S 1.412e-02 1.863e-02 
mem_wdata\[10\] O *L 0.000e+00 *S 1.097e-02 1.424e-02 
mem_wdata\[9\] O *L 0.000e+00 *S 3.620e-02 5.337e-02 
mem_wdata\[8\] O *L 0.000e+00 *S 3.509e-02 5.156e-02 
mem_wdata\[7\] O *L 0.000e+00 *S 9.833e-03 1.271e-02 
mem_wdata\[6\] O *L 0.000e+00 *S 9.723e-03 1.256e-02 
mem_wdata\[5\] O *L 0.000e+00 *S 7.518e-03 9.597e-03 
mem_wdata\[4\] O *L 0.000e+00 *S 6.929e-03 8.815e-03 
mem_wdata\[3\] O *L 0.000e+00 *S 8.929e-03 1.150e-02 
mem_wdata\[2\] O *L 0.000e+00 *S 1.108e-02 1.438e-02 
mem_wdata\[1\] O *L 0.000e+00 *S 1.125e-02 1.462e-02 
mem_wdata\[0\] O *L 0.000e+00 *S 9.004e-03 1.160e-02 
mem_wstrb\[3\] O *L 0.000e+00 *S 9.291e-03 1.198e-02 
mem_wstrb\[2\] O *L 0.000e+00 *S 9.888e-03 1.279e-02 
mem_wstrb\[1\] O *L 0.000e+00 *S 1.208e-02 1.573e-02 
mem_wstrb\[0\] O *L 0.000e+00 *S 1.450e-02 1.919e-02 
mem_rdata\[31\] I *L 0.000e+00 *S 0.000e+00 0.000e+00 
mem_rdata\[30\] I *L 0.000e+00 *S 0.000e+00 0.000e+00 
mem_rdata\[29\] I *L 0.000e+00 *S 0.000e+00 0.000e+00 
mem_rdata\[28\] I *L 0.000e+00 *S 0.000e+00 0.000e+00 
mem_rdata\[27\] I *L 0.000e+00 *S 0.000e+00 0.000e+00 
mem_rdata\[26\] I *L 0.000e+00 *S 0.000e+00 0.000e+00 
mem_rdata\[25\] I *L 0.000e+00 *S 0.000e+00 0.000e+00 
mem_rdata\[24\] I *L 0.000e+00 *S 0.000e+00 0.000e+00 
mem_rdata\[23\] I *L 0.000e+00 *S 0.000e+00 0.000e+00 
mem_rdata\[22\] I *L 0.000e+00 *S 0.000e+00 0.000e+00 
mem_rdata\[21\] I *L 0.000e+00 *S 0.000e+00 0.000e+00 
mem_rdata\[20\] I *L 0.000e+00 *S 0.000e+00 0.000e+00 
mem_rdata\[19\] I *L 0.000e+00 *S 0.000e+00 0.000e+00 
mem_rdata\[18\] I *L 0.000e+00 *S 0.000e+00 0.000e+00 
mem_rdata\[17\] I *L 0.000e+00 *S 0.000e+00 0.000e+00 
mem_rdata\[16\] I *L 0.000e+00 *S 0.000e+00 0.000e+00 
mem_rdata\[15\] I *L 0.000e+00 *S 0.000e+00 0.000e+00 
mem_rdata\[14\] I *L 0.000e+00 *S 0.000e+00 0.000e+00 
mem_rdata\[13\] I *L 0.000e+00 *S 0.000e+00 0.000e+00 
mem_rdata\[12\] I *L 0.000e+00 *S 0.000e+00 0.000e+00 
mem_rdata\[11\] I *L 0.000e+00 *S 0.000e+00 0.000e+00 
mem_rdata\[10\] I *L 0.000e+00 *S 0.000e+00 0.000e+00 
mem_rdata\[9\] I *L 0.000e+00 *S 0.000e+00 0.000e+00 
mem_rdata\[8\] I *L 0.000e+00 *S 0.000e+00 0.000e+00 
mem_rdata\[7\] I *L 0.000e+00 *S 0.000e+00 0.000e+00 
mem_rdata\[6\] I *L 0.000e+00 *S 0.000e+00 0.000e+00 
mem_rdata\[5\] I *L 0.000e+00 *S 0.000e+00 0.000e+00 
mem_rdata\[4\] I *L 0.000e+00 *S 0.000e+00 0.000e+00 
mem_rdata\[3\] I *L 0.000e+00 *S 0.000e+00 0.000e+00 
mem_rdata\[2\] I *L 0.000e+00 *S 0.000e+00 0.000e+00 
mem_rdata\[1\] I *L 0.000e+00 *S 0.000e+00 0.000e+00 
mem_rdata\[0\] I *L 0.000e+00 *S 0.000e+00 0.000e+00 
mem_la_read O *L 0.000e+00 *S 1.016e-02 1.151e-02 
mem_la_write O *L 0.000e+00 *S 4.331e-02 5.475e-02 
mem_la_addr\[31\] O *L 0.000e+00 *S 5.213e-02 5.172e-02 
mem_la_addr\[30\] O *L 0.000e+00 *S 5.180e-02 5.134e-02 
mem_la_addr\[29\] O *L 0.000e+00 *S 5.099e-02 5.043e-02 
mem_la_addr\[28\] O *L 0.000e+00 *S 4.879e-02 4.793e-02 
mem_la_addr\[27\] O *L 0.000e+00 *S 4.471e-02 4.330e-02 
mem_la_addr\[26\] O *L 0.000e+00 *S 4.902e-02 4.819e-02 
mem_la_addr\[25\] O *L 0.000e+00 *S 4.742e-02 4.637e-02 
mem_la_addr\[24\] O *L 0.000e+00 *S 4.686e-02 4.574e-02 
mem_la_addr\[23\] O *L 0.000e+00 *S 4.283e-02 4.118e-02 
mem_la_addr\[22\] O *L 0.000e+00 *S 4.577e-02 4.451e-02 
mem_la_addr\[21\] O *L 0.000e+00 *S 4.117e-02 3.929e-02 
mem_la_addr\[20\] O *L 0.000e+00 *S 4.451e-02 4.307e-02 
mem_la_addr\[19\] O *L 0.000e+00 *S 4.330e-02 4.170e-02 
mem_la_addr\[18\] O *L 0.000e+00 *S 4.545e-02 4.415e-02 
mem_la_addr\[17\] O *L 0.000e+00 *S 4.738e-02 4.633e-02 
mem_la_addr\[16\] O *L 0.000e+00 *S 4.578e-02 4.452e-02 
mem_la_addr\[15\] O *L 0.000e+00 *S 5.215e-02 5.174e-02 
mem_la_addr\[14\] O *L 0.000e+00 *S 5.194e-02 5.150e-02 
mem_la_addr\[13\] O *L 0.000e+00 *S 5.359e-02 5.337e-02 
mem_la_addr\[12\] O *L 0.000e+00 *S 5.843e-02 5.886e-02 
mem_la_addr\[11\] O *L 0.000e+00 *S 6.075e-02 6.149e-02 
mem_la_addr\[10\] O *L 0.000e+00 *S 5.955e-02 6.013e-02 
mem_la_addr\[9\] O *L 0.000e+00 *S 3.916e-02 3.674e-02 
mem_la_addr\[8\] O *L 0.000e+00 *S 4.194e-02 3.975e-02 
mem_la_addr\[7\] O *L 0.000e+00 *S 4.646e-02 4.467e-02 
mem_la_addr\[6\] O *L 0.000e+00 *S 4.676e-02 4.500e-02 
mem_la_addr\[5\] O *L 0.000e+00 *S 4.719e-02 4.547e-02 
mem_la_addr\[4\] O *L 0.000e+00 *S 3.849e-02 4.542e-02 
mem_la_addr\[3\] O *L 0.000e+00 *S 4.820e-02 4.658e-02 
mem_la_addr\[2\] O *L 0.000e+00 *S 4.832e-02 4.671e-02 
mem_la_addr\[1\] O *L 0.000e+00 *S 0.000e+00 0.000e+00 
mem_la_addr\[0\] O *L 0.000e+00 *S 0.000e+00 0.000e+00 
mem_la_wdata\[31\] O *L 0.000e+00 *S 3.528e-02 3.744e-02 
mem_la_wdata\[30\] O *L 0.000e+00 *S 2.311e-02 2.377e-02 
mem_la_wdata\[29\] O *L 0.000e+00 *S 1.933e-02 1.970e-02 
mem_la_wdata\[28\] O *L 0.000e+00 *S 2.343e-02 2.412e-02 
mem_la_wdata\[27\] O *L 0.000e+00 *S 4.283e-02 4.720e-02 
mem_la_wdata\[26\] O *L 0.000e+00 *S 2.016e-02 2.056e-02 
mem_la_wdata\[25\] O *L 0.000e+00 *S 3.298e-02 3.486e-02 
mem_la_wdata\[24\] O *L 0.000e+00 *S 1.680e-02 1.707e-02 
mem_la_wdata\[23\] O *L 0.000e+00 *S 2.869e-02 3.004e-02 
mem_la_wdata\[22\] O *L 0.000e+00 *S 3.101e-02 3.265e-02 
mem_la_wdata\[21\] O *L 0.000e+00 *S 2.928e-02 3.070e-02 
mem_la_wdata\[20\] O *L 0.000e+00 *S 2.477e-02 2.564e-02 
mem_la_wdata\[19\] O *L 0.000e+00 *S 2.337e-02 2.406e-02 
mem_la_wdata\[18\] O *L 0.000e+00 *S 2.192e-02 2.243e-02 
mem_la_wdata\[17\] O *L 0.000e+00 *S 3.463e-02 3.672e-02 
mem_la_wdata\[16\] O *L 0.000e+00 *S 3.421e-02 3.624e-02 
mem_la_wdata\[15\] O *L 0.000e+00 *S 3.850e-02 4.155e-02 
mem_la_wdata\[14\] O *L 0.000e+00 *S 2.072e-02 2.114e-02 
mem_la_wdata\[13\] O *L 0.000e+00 *S 2.857e-02 2.990e-02 
mem_la_wdata\[12\] O *L 0.000e+00 *S 2.505e-02 2.595e-02 
mem_la_wdata\[11\] O *L 0.000e+00 *S 1.983e-02 2.022e-02 
mem_la_wdata\[10\] O *L 0.000e+00 *S 3.152e-02 3.322e-02 
mem_la_wdata\[9\] O *L 0.000e+00 *S 2.907e-02 3.047e-02 
mem_la_wdata\[8\] O *L 0.000e+00 *S 2.767e-02 2.889e-02 
mem_la_wdata\[7\] O *L 0.000e+00 *S 3.881e-02 4.195e-02 
mem_la_wdata\[6\] O *L 0.000e+00 *S 3.334e-02 3.526e-02 
mem_la_wdata\[5\] O *L 0.000e+00 *S 3.054e-02 3.212e-02 
mem_la_wdata\[4\] O *L 0.000e+00 *S 2.870e-02 3.005e-02 
mem_la_wdata\[3\] O *L 0.000e+00 *S 3.219e-02 3.397e-02 
mem_la_wdata\[2\] O *L 0.000e+00 *S 3.478e-02 3.688e-02 
mem_la_wdata\[1\] O *L 0.000e+00 *S 5.358e-02 6.123e-02 
mem_la_wdata\[0\] O *L 0.000e+00 *S 3.866e-02 4.175e-02 
mem_la_wstrb\[3\] O *L 0.000e+00 *S 2.394e-02 2.469e-02 
mem_la_wstrb\[2\] O *L 0.000e+00 *S 2.827e-02 2.957e-02 
mem_la_wstrb\[1\] O *L 0.000e+00 *S 2.522e-02 2.613e-02 
mem_la_wstrb\[0\] O *L 0.000e+00 *S 5.153e-02 5.635e-02 
pcpi_valid O *L 0.000e+00 *S 0.000e+00 0.000e+00 
pcpi_insn\[31\] O *L 0.000e+00 *S 0.000e+00 0.000e+00 
pcpi_insn\[30\] O *L 0.000e+00 *S 0.000e+00 0.000e+00 
pcpi_insn\[29\] O *L 0.000e+00 *S 0.000e+00 0.000e+00 
pcpi_insn\[28\] O *L 0.000e+00 *S 0.000e+00 0.000e+00 
pcpi_insn\[27\] O *L 0.000e+00 *S 0.000e+00 0.000e+00 
pcpi_insn\[26\] O *L 0.000e+00 *S 0.000e+00 0.000e+00 
pcpi_insn\[25\] O *L 0.000e+00 *S 0.000e+00 0.000e+00 
pcpi_insn\[24\] O *L 0.000e+00 *S 0.000e+00 0.000e+00 
pcpi_insn\[23\] O *L 0.000e+00 *S 0.000e+00 0.000e+00 
pcpi_insn\[22\] O *L 0.000e+00 *S 0.000e+00 0.000e+00 
pcpi_insn\[21\] O *L 0.000e+00 *S 0.000e+00 0.000e+00 
pcpi_insn\[20\] O *L 0.000e+00 *S 0.000e+00 0.000e+00 
pcpi_insn\[19\] O *L 0.000e+00 *S 0.000e+00 0.000e+00 
pcpi_insn\[18\] O *L 0.000e+00 *S 0.000e+00 0.000e+00 
pcpi_insn\[17\] O *L 0.000e+00 *S 0.000e+00 0.000e+00 
pcpi_insn\[16\] O *L 0.000e+00 *S 0.000e+00 0.000e+00 
pcpi_insn\[15\] O *L 0.000e+00 *S 0.000e+00 0.000e+00 
pcpi_insn\[14\] O *L 0.000e+00 *S 0.000e+00 0.000e+00 
pcpi_insn\[13\] O *L 0.000e+00 *S 0.000e+00 0.000e+00 
pcpi_insn\[12\] O *L 0.000e+00 *S 0.000e+00 0.000e+00 
pcpi_insn\[11\] O *L 0.000e+00 *S 0.000e+00 0.000e+00 
pcpi_insn\[10\] O *L 0.000e+00 *S 0.000e+00 0.000e+00 
pcpi_insn\[9\] O *L 0.000e+00 *S 0.000e+00 0.000e+00 
pcpi_insn\[8\] O *L 0.000e+00 *S 0.000e+00 0.000e+00 
pcpi_insn\[7\] O *L 0.000e+00 *S 0.000e+00 0.000e+00 
pcpi_insn\[6\] O *L 0.000e+00 *S 0.000e+00 0.000e+00 
pcpi_insn\[5\] O *L 0.000e+00 *S 0.000e+00 0.000e+00 
pcpi_insn\[4\] O *L 0.000e+00 *S 0.000e+00 0.000e+00 
pcpi_insn\[3\] O *L 0.000e+00 *S 0.000e+00 0.000e+00 
pcpi_insn\[2\] O *L 0.000e+00 *S 0.000e+00 0.000e+00 
pcpi_insn\[1\] O *L 0.000e+00 *S 0.000e+00 0.000e+00 
pcpi_insn\[0\] O *L 0.000e+00 *S 0.000e+00 0.000e+00 
pcpi_rs1\[31\] O *L 0.000e+00 *S 4.235e-02 5.537e-02 
pcpi_rs1\[30\] O *L 0.000e+00 *S 3.077e-02 3.731e-02 
pcpi_rs1\[29\] O *L 0.000e+00 *S 2.898e-02 3.508e-02 
pcpi_rs1\[28\] O *L 0.000e+00 *S 3.964e-02 5.138e-02 
pcpi_rs1\[27\] O *L 0.000e+00 *S 3.147e-02 3.819e-02 
pcpi_rs1\[26\] O *L 0.000e+00 *S 3.263e-02 3.963e-02 
pcpi_rs1\[25\] O *L 0.000e+00 *S 3.107e-02 3.769e-02 
pcpi_rs1\[24\] O *L 0.000e+00 *S 4.091e-02 5.325e-02 
pcpi_rs1\[23\] O *L 0.000e+00 *S 3.996e-02 5.185e-02 
pcpi_rs1\[22\] O *L 0.000e+00 *S 4.279e-02 5.603e-02 
pcpi_rs1\[21\] O *L 0.000e+00 *S 4.130e-02 5.382e-02 
pcpi_rs1\[20\] O *L 0.000e+00 *S 4.360e-02 5.722e-02 
pcpi_rs1\[19\] O *L 0.000e+00 *S 4.217e-02 5.510e-02 
pcpi_rs1\[18\] O *L 0.000e+00 *S 4.149e-02 5.411e-02 
pcpi_rs1\[17\] O *L 0.000e+00 *S 4.192e-02 5.474e-02 
pcpi_rs1\[16\] O *L 0.000e+00 *S 4.199e-02 5.485e-02 
pcpi_rs1\[15\] O *L 0.000e+00 *S 4.135e-02 5.391e-02 
pcpi_rs1\[14\] O *L 0.000e+00 *S 4.010e-02 5.206e-02 
pcpi_rs1\[13\] O *L 0.000e+00 *S 4.077e-02 5.305e-02 
pcpi_rs1\[12\] O *L 0.000e+00 *S 4.154e-02 5.419e-02 
pcpi_rs1\[11\] O *L 0.000e+00 *S 4.153e-02 5.417e-02 
pcpi_rs1\[10\] O *L 0.000e+00 *S 4.088e-02 5.321e-02 
pcpi_rs1\[9\] O *L 0.000e+00 *S 4.276e-02 5.597e-02 
pcpi_rs1\[8\] O *L 0.000e+00 *S 3.627e-02 5.036e-02 
pcpi_rs1\[7\] O *L 0.000e+00 *S 4.169e-02 5.441e-02 
pcpi_rs1\[6\] O *L 0.000e+00 *S 4.125e-02 5.375e-02 
pcpi_rs1\[5\] O *L 0.000e+00 *S 4.065e-02 5.287e-02 
pcpi_rs1\[4\] O *L 0.000e+00 *S 4.203e-02 5.490e-02 
pcpi_rs1\[3\] O *L 0.000e+00 *S 4.009e-02 5.204e-02 
pcpi_rs1\[2\] O *L 0.000e+00 *S 3.904e-02 5.463e-02 
pcpi_rs1\[1\] O *L 0.000e+00 *S 2.984e-02 3.615e-02 
pcpi_rs1\[0\] O *L 0.000e+00 *S 4.153e-02 5.417e-02 
pcpi_rs2\[31\] O *L 0.000e+00 *S 2.975e-02 4.027e-02 
pcpi_rs2\[30\] O *L 0.000e+00 *S 2.906e-02 3.919e-02 
pcpi_rs2\[29\] O *L 0.000e+00 *S 2.991e-02 4.051e-02 
pcpi_rs2\[28\] O *L 0.000e+00 *S 2.879e-02 3.878e-02 
pcpi_rs2\[27\] O *L 0.000e+00 *S 2.960e-02 4.003e-02 
pcpi_rs2\[26\] O *L 0.000e+00 *S 3.952e-02 5.538e-02 
pcpi_rs2\[25\] O *L 0.000e+00 *S 3.028e-02 4.109e-02 
pcpi_rs2\[24\] O *L 0.000e+00 *S 3.492e-02 4.826e-02 
pcpi_rs2\[23\] O *L 0.000e+00 *S 3.513e-02 4.859e-02 
pcpi_rs2\[22\] O *L 0.000e+00 *S 3.229e-02 4.419e-02 
pcpi_rs2\[21\] O *L 0.000e+00 *S 3.479e-02 4.806e-02 
pcpi_rs2\[20\] O *L 0.000e+00 *S 3.290e-02 4.514e-02 
pcpi_rs2\[19\] O *L 0.000e+00 *S 3.078e-02 4.185e-02 
pcpi_rs2\[18\] O *L 0.000e+00 *S 3.590e-02 4.979e-02 
pcpi_rs2\[17\] O *L 0.000e+00 *S 3.410e-02 4.699e-02 
pcpi_rs2\[16\] O *L 0.000e+00 *S 3.618e-02 5.021e-02 
pcpi_rs2\[15\] O *L 0.000e+00 *S 2.791e-02 3.742e-02 
pcpi_rs2\[14\] O *L 0.000e+00 *S 2.977e-02 4.030e-02 
pcpi_rs2\[13\] O *L 0.000e+00 *S 2.640e-02 3.508e-02 
pcpi_rs2\[12\] O *L 0.000e+00 *S 3.043e-02 4.131e-02 
pcpi_rs2\[11\] O *L 0.000e+00 *S 2.868e-02 3.861e-02 
pcpi_rs2\[10\] O *L 0.000e+00 *S 2.927e-02 3.952e-02 
pcpi_rs2\[9\] O *L 0.000e+00 *S 2.882e-02 3.883e-02 
pcpi_rs2\[8\] O *L 0.000e+00 *S 3.227e-02 4.417e-02 
pcpi_rs2\[7\] O *L 0.000e+00 *S 3.552e-02 4.920e-02 
pcpi_rs2\[6\] O *L 0.000e+00 *S 4.066e-02 5.714e-02 
pcpi_rs2\[5\] O *L 0.000e+00 *S 3.723e-02 5.183e-02 
pcpi_rs2\[4\] O *L 0.000e+00 *S 4.149e-02 5.844e-02 
pcpi_rs2\[3\] O *L 0.000e+00 *S 3.763e-02 5.246e-02 
pcpi_rs2\[2\] O *L 0.000e+00 *S 3.735e-02 5.203e-02 
pcpi_rs2\[1\] O *L 0.000e+00 *S 3.347e-02 4.603e-02 
pcpi_rs2\[0\] O *L 0.000e+00 *S 3.639e-02 5.054e-02 
pcpi_wr I *L 0.000e+00 *S 0.000e+00 0.000e+00 
pcpi_rd\[31\] I *L 0.000e+00 *S 0.000e+00 0.000e+00 
pcpi_rd\[30\] I *L 0.000e+00 *S 0.000e+00 0.000e+00 
pcpi_rd\[29\] I *L 0.000e+00 *S 0.000e+00 0.000e+00 
pcpi_rd\[28\] I *L 0.000e+00 *S 0.000e+00 0.000e+00 
pcpi_rd\[27\] I *L 0.000e+00 *S 0.000e+00 0.000e+00 
pcpi_rd\[26\] I *L 0.000e+00 *S 0.000e+00 0.000e+00 
pcpi_rd\[25\] I *L 0.000e+00 *S 0.000e+00 0.000e+00 
pcpi_rd\[24\] I *L 0.000e+00 *S 0.000e+00 0.000e+00 
pcpi_rd\[23\] I *L 0.000e+00 *S 0.000e+00 0.000e+00 
pcpi_rd\[22\] I *L 0.000e+00 *S 0.000e+00 0.000e+00 
pcpi_rd\[21\] I *L 0.000e+00 *S 0.000e+00 0.000e+00 
pcpi_rd\[20\] I *L 0.000e+00 *S 0.000e+00 0.000e+00 
pcpi_rd\[19\] I *L 0.000e+00 *S 0.000e+00 0.000e+00 
pcpi_rd\[18\] I *L 0.000e+00 *S 0.000e+00 0.000e+00 
pcpi_rd\[17\] I *L 0.000e+00 *S 0.000e+00 0.000e+00 
pcpi_rd\[16\] I *L 0.000e+00 *S 0.000e+00 0.000e+00 
pcpi_rd\[15\] I *L 0.000e+00 *S 0.000e+00 0.000e+00 
pcpi_rd\[14\] I *L 0.000e+00 *S 0.000e+00 0.000e+00 
pcpi_rd\[13\] I *L 0.000e+00 *S 0.000e+00 0.000e+00 
pcpi_rd\[12\] I *L 0.000e+00 *S 0.000e+00 0.000e+00 
pcpi_rd\[11\] I *L 0.000e+00 *S 0.000e+00 0.000e+00 
pcpi_rd\[10\] I *L 0.000e+00 *S 0.000e+00 0.000e+00 
pcpi_rd\[9\] I *L 0.000e+00 *S 0.000e+00 0.000e+00 
pcpi_rd\[8\] I *L 0.000e+00 *S 0.000e+00 0.000e+00 
pcpi_rd\[7\] I *L 0.000e+00 *S 0.000e+00 0.000e+00 
pcpi_rd\[6\] I *L 0.000e+00 *S 0.000e+00 0.000e+00 
pcpi_rd\[5\] I *L 0.000e+00 *S 0.000e+00 0.000e+00 
pcpi_rd\[4\] I *L 0.000e+00 *S 0.000e+00 0.000e+00 
pcpi_rd\[3\] I *L 0.000e+00 *S 0.000e+00 0.000e+00 
pcpi_rd\[2\] I *L 0.000e+00 *S 0.000e+00 0.000e+00 
pcpi_rd\[1\] I *L 0.000e+00 *S 0.000e+00 0.000e+00 
pcpi_rd\[0\] I *L 0.000e+00 *S 0.000e+00 0.000e+00 
pcpi_wait I *L 0.000e+00 *S 0.000e+00 0.000e+00 
pcpi_ready I *L 0.000e+00 *S 0.000e+00 0.000e+00 
irq\[31\] I *L 0.000e+00 *S 0.000e+00 0.000e+00 
irq\[30\] I *L 0.000e+00 *S 0.000e+00 0.000e+00 
irq\[29\] I *L 0.000e+00 *S 0.000e+00 0.000e+00 
irq\[28\] I *L 0.000e+00 *S 0.000e+00 0.000e+00 
irq\[27\] I *L 0.000e+00 *S 0.000e+00 0.000e+00 
irq\[26\] I *L 0.000e+00 *S 0.000e+00 0.000e+00 
irq\[25\] I *L 0.000e+00 *S 0.000e+00 0.000e+00 
irq\[24\] I *L 0.000e+00 *S 0.000e+00 0.000e+00 
irq\[23\] I *L 0.000e+00 *S 0.000e+00 0.000e+00 
irq\[22\] I *L 0.000e+00 *S 0.000e+00 0.000e+00 
irq\[21\] I *L 0.000e+00 *S 0.000e+00 0.000e+00 
irq\[20\] I *L 0.000e+00 *S 0.000e+00 0.000e+00 
irq\[19\] I *L 0.000e+00 *S 0.000e+00 0.000e+00 
irq\[18\] I *L 0.000e+00 *S 0.000e+00 0.000e+00 
irq\[17\] I *L 0.000e+00 *S 0.000e+00 0.000e+00 
irq\[16\] I *L 0.000e+00 *S 0.000e+00 0.000e+00 
irq\[15\] I *L 0.000e+00 *S 0.000e+00 0.000e+00 
irq\[14\] I *L 0.000e+00 *S 0.000e+00 0.000e+00 
irq\[13\] I *L 0.000e+00 *S 0.000e+00 0.000e+00 
irq\[12\] I *L 0.000e+00 *S 0.000e+00 0.000e+00 
irq\[11\] I *L 0.000e+00 *S 0.000e+00 0.000e+00 
irq\[10\] I *L 0.000e+00 *S 0.000e+00 0.000e+00 
irq\[9\] I *L 0.000e+00 *S 0.000e+00 0.000e+00 
irq\[8\] I *L 0.000e+00 *S 0.000e+00 0.000e+00 
irq\[7\] I *L 0.000e+00 *S 0.000e+00 0.000e+00 
irq\[6\] I *L 0.000e+00 *S 0.000e+00 0.000e+00 
irq\[5\] I *L 0.000e+00 *S 0.000e+00 0.000e+00 
irq\[4\] I *L 0.000e+00 *S 0.000e+00 0.000e+00 
irq\[3\] I *L 0.000e+00 *S 0.000e+00 0.000e+00 
irq\[2\] I *L 0.000e+00 *S 0.000e+00 0.000e+00 
irq\[1\] I *L 0.000e+00 *S 0.000e+00 0.000e+00 
irq\[0\] I *L 0.000e+00 *S 0.000e+00 0.000e+00 
eoi\[31\] O *L 0.000e+00 *S 1.186e-02 1.543e-02 
eoi\[30\] O *L 0.000e+00 *S 1.200e-02 1.563e-02 
eoi\[29\] O *L 0.000e+00 *S 1.330e-02 1.744e-02 
eoi\[28\] O *L 0.000e+00 *S 1.105e-02 1.435e-02 
eoi\[27\] O *L 0.000e+00 *S 1.369e-02 1.801e-02 
eoi\[26\] O *L 0.000e+00 *S 1.345e-02 1.765e-02 
eoi\[25\] O *L 0.000e+00 *S 1.517e-02 2.017e-02 
eoi\[24\] O *L 0.000e+00 *S 1.514e-02 2.013e-02 
eoi\[23\] O *L 0.000e+00 *S 7.783e-03 9.954e-03 
eoi\[22\] O *L 0.000e+00 *S 1.136e-02 1.477e-02 
eoi\[21\] O *L 0.000e+00 *S 9.241e-03 1.192e-02 
eoi\[20\] O *L 0.000e+00 *S 9.446e-03 1.219e-02 
eoi\[19\] O *L 0.000e+00 *S 8.090e-03 1.037e-02 
eoi\[18\] O *L 0.000e+00 *S 9.314e-03 1.201e-02 
eoi\[17\] O *L 0.000e+00 *S 9.348e-03 1.206e-02 
eoi\[16\] O *L 0.000e+00 *S 1.079e-02 1.400e-02 
eoi\[15\] O *L 0.000e+00 *S 1.292e-02 1.689e-02 
eoi\[14\] O *L 0.000e+00 *S 1.392e-02 1.834e-02 
eoi\[13\] O *L 0.000e+00 *S 1.468e-02 1.945e-02 
eoi\[12\] O *L 0.000e+00 *S 1.395e-02 1.839e-02 
eoi\[11\] O *L 0.000e+00 *S 1.211e-02 1.577e-02 
eoi\[10\] O *L 0.000e+00 *S 1.411e-02 1.862e-02 
eoi\[9\] O *L 0.000e+00 *S 1.228e-02 1.600e-02 
eoi\[8\] O *L 0.000e+00 *S 1.162e-02 1.512e-02 
eoi\[7\] O *L 0.000e+00 *S 1.647e-02 2.206e-02 
eoi\[6\] O *L 0.000e+00 *S 1.146e-02 1.489e-02 
eoi\[5\] O *L 0.000e+00 *S 1.410e-02 1.861e-02 
eoi\[4\] O *L 0.000e+00 *S 1.122e-02 1.458e-02 
eoi\[3\] O *L 0.000e+00 *S 1.223e-02 1.594e-02 
eoi\[2\] O *L 0.000e+00 *S 1.090e-02 1.415e-02 
eoi\[1\] O *L 0.000e+00 *S 1.155e-02 1.502e-02 
eoi\[0\] O *L 0.000e+00 *S 1.303e-02 1.705e-02 
trace_valid O *L 0.000e+00 *S 0.000e+00 0.000e+00 
trace_data\[35\] O *L 0.000e+00 *S 0.000e+00 0.000e+00 
trace_data\[34\] O *L 0.000e+00 *S 0.000e+00 0.000e+00 
trace_data\[33\] O *L 0.000e+00 *S 0.000e+00 0.000e+00 
trace_data\[32\] O *L 0.000e+00 *S 0.000e+00 0.000e+00 
trace_data\[31\] O *L 0.000e+00 *S 0.000e+00 0.000e+00 
trace_data\[30\] O *L 0.000e+00 *S 0.000e+00 0.000e+00 
trace_data\[29\] O *L 0.000e+00 *S 0.000e+00 0.000e+00 
trace_data\[28\] O *L 0.000e+00 *S 0.000e+00 0.000e+00 
trace_data\[27\] O *L 0.000e+00 *S 0.000e+00 0.000e+00 
trace_data\[26\] O *L 0.000e+00 *S 0.000e+00 0.000e+00 
trace_data\[25\] O *L 0.000e+00 *S 0.000e+00 0.000e+00 
trace_data\[24\] O *L 0.000e+00 *S 0.000e+00 0.000e+00 
trace_data\[23\] O *L 0.000e+00 *S 0.000e+00 0.000e+00 
trace_data\[22\] O *L 0.000e+00 *S 0.000e+00 0.000e+00 
trace_data\[21\] O *L 0.000e+00 *S 0.000e+00 0.000e+00 
trace_data\[20\] O *L 0.000e+00 *S 0.000e+00 0.000e+00 
trace_data\[19\] O *L 0.000e+00 *S 0.000e+00 0.000e+00 
trace_data\[18\] O *L 0.000e+00 *S 0.000e+00 0.000e+00 
trace_data\[17\] O *L 0.000e+00 *S 0.000e+00 0.000e+00 
trace_data\[16\] O *L 0.000e+00 *S 0.000e+00 0.000e+00 
trace_data\[15\] O *L 0.000e+00 *S 0.000e+00 0.000e+00 
trace_data\[14\] O *L 0.000e+00 *S 0.000e+00 0.000e+00 
trace_data\[13\] O *L 0.000e+00 *S 0.000e+00 0.000e+00 
trace_data\[12\] O *L 0.000e+00 *S 0.000e+00 0.000e+00 
trace_data\[11\] O *L 0.000e+00 *S 0.000e+00 0.000e+00 
trace_data\[10\] O *L 0.000e+00 *S 0.000e+00 0.000e+00 
trace_data\[9\] O *L 0.000e+00 *S 0.000e+00 0.000e+00 
trace_data\[8\] O *L 0.000e+00 *S 0.000e+00 0.000e+00 
trace_data\[7\] O *L 0.000e+00 *S 0.000e+00 0.000e+00 
trace_data\[6\] O *L 0.000e+00 *S 0.000e+00 0.000e+00 
trace_data\[5\] O *L 0.000e+00 *S 0.000e+00 0.000e+00 
trace_data\[4\] O *L 0.000e+00 *S 0.000e+00 0.000e+00 
trace_data\[3\] O *L 0.000e+00 *S 0.000e+00 0.000e+00 
trace_data\[2\] O *L 0.000e+00 *S 0.000e+00 0.000e+00 
trace_data\[1\] O *L 0.000e+00 *S 0.000e+00 0.000e+00 
trace_data\[0\] O *L 0.000e+00 *S 0.000e+00 0.000e+00 

*R_NET resetn 1.476e+02
*DRIVER resetn
*CELL NULL
*C2_R1_C1 7.381e+01 7.912e-04 7.381e+01 
*LOADS
*RC U8803:A2 6.265e-03
*RC U8939:A2 7.763e-03
*RC U8937:A2 6.811e-03
*RC U8837:A2 8.293e-03
*RC U12602:A1 6.869e-03
*RC U5405:A2 7.092e-03
*RC U5407:A2 6.432e-03
*RC U8946:A2 8.481e-03
*RC U8944:A2 8.130e-03
*RC U5467:A2 4.226e-03
*RC U8968:A2 9.026e-03
*RC U8336:A2 4.461e-03
*RC U8986:A2 9.738e-03
*RC U5413:A4 6.589e-03
*RC U5554:A2 5.964e-03
*RC U5207:A3 9.162e-03
*RC U8369:A2 6.952e-03
*RC U8989:A2 1.027e-02
*RC U5142:A 8.666e-03
*RC U8337:A2 8.053e-03
*RC U9618:A2 2.742e-02
*RC U8130:A2 1.104e-02
*RC U8414:A2 1.001e-02
*RC U6871:A2 1.110e-02
*RC U12100:A2 9.578e-03
*RC U6878:A3 9.961e-03
*RC U8421:A1 1.065e-02
*RC U8996:A2 1.014e-02
*RC U12344:A2 1.116e-02
*RC U5497:A2 1.642e-02
*RC U8626:A1 1.335e-02
*RC U5135:A 1.126e-02
*RC U8632:A3 1.595e-02
*RC U5240:A2 1.111e-02
*RC U8630:A3 1.534e-02
*RC U8425:A3 1.588e-02
*RC U8679:A3 1.753e-02
*RC U11966:A3 1.694e-02
*RC U11700:A3 1.740e-02
*RC U11783:A3 1.731e-02
*RC U12272:A2 1.879e-02
*RC U11616:A3 1.822e-02
*RC U12379:A3 1.366e-02
*RC U11893:A3 1.808e-02
*RC U5508:A2 1.965e-02
*RC U8879:A2 1.676e-02
*RC U8876:A2 1.583e-02
*RC U8769:A2 1.561e-02
*RC U8887:A2 1.743e-02
*RC U8884:A2 1.671e-02
*RC U8791:A2 1.703e-02
*RC U8789:A2 1.851e-02
*RC U5217:A2 1.225e-02
*RC U8782:A2 1.801e-02
*RC U5138:A 1.259e-02
*RC U8773:A2 1.646e-02
*RC U8775:A2 1.718e-02
*RC U8891:A2 1.776e-02
*RC U8784:A2 1.944e-02
*RC U8894:A2 1.895e-02
*RC U8927:A2 2.113e-02
*RC U8925:A2 2.212e-02
*RC U8917:A2 2.106e-02
*RC U8920:A2 2.244e-02
*RC U8902:A2 2.269e-02
*RC U8912:A2 2.365e-02
*RC U8905:A2 2.318e-02
*RC U8909:A2 2.345e-02
*RC U11204:A3 2.223e-02
*RC U10064:A3 2.372e-02
*RC U11042:A3 2.398e-02
*RC U10958:A3 2.367e-02
*RC U11125:A3 2.349e-02
*RC U9590:A3 1.856e-02
*RC U10257:A3 1.896e-02
*RC U10340:A3 1.748e-02
*RC U10157:A3 2.301e-02
*RC U11287:A3 1.970e-02
*RC U10427:A3 2.294e-02
*RC U10510:A3 2.470e-02
*RC U11450:A3 1.813e-02
*RC U11534:A3 1.765e-02
*RC U11367:A3 1.870e-02
*RC U9870:A3 1.974e-02
*RC U9781:A3 2.055e-02
*RC U12312:A3 2.072e-02
*RC U10631:A3 2.113e-02
*RC U9955:A3 2.375e-02
*RC U10876:A3 2.310e-02
*RC U10796:A3 2.312e-02
*RC U10600:A3 2.396e-02
*RC U9605:A2 2.774e-02
*RC U5127:A 1.184e-02
*END

*R_NET trap 1.407e+01
*DRIVER trap_reg:Q
*CELL DFFX2_HVT
*C2_R1_C1 7.037e+00 3.079e-04 7.037e+00 
*LOADS
*RC U5754:A 1.101e-03
*RC U5203:A1 9.696e-04
*RC U5208:A2 7.659e-04
*RC trap 9.175e-04
*END

*R_NET mem_valid 7.368e+00
*DRIVER mem_valid_reg:Q
*CELL DFFX1_HVT
*C2_R1_C1 3.684e+00 1.693e-04 3.684e+00 
*LOADS
*RC U5126:A1 1.387e-04
*RC U5207:A2 1.941e-05
*RC mem_valid 4.046e-04
*END

*R_NET mem_instr 1.840e+00
*DRIVER mem_instr_reg:Q
*CELL DFFX1_HVT
*C2_R1_C1 9.198e-01 3.801e-05 9.198e-01 
*LOADS
*RC U12600:A3 7.299e-06
*RC mem_instr 2.122e-05
*END

*R_NET mem_ready 6.088e+00
*DRIVER mem_ready
*CELL NULL
*C2_R1_C1 3.044e+00 1.390e-04 3.044e+00 
*LOADS
*RC U5126:A2 2.878e-04
*RC U5204:A 3.551e-04
*END

*R_NET mem_addr\[31\] 1.247e+00
*DRIVER mem_addr_reg_31_:Q
*CELL DFFX1_HVT
*C2_R1_C1 6.236e-01 2.144e-05 6.236e-01 
*LOADS
*RC U12599:A2 1.101e-05
*RC mem_addr\[31\] 5.189e-06
*END

*R_NET mem_addr\[30\] 1.678e+00
*DRIVER mem_addr_reg_30_:Q
*CELL DFFX1_HVT
*C2_R1_C1 8.388e-01 3.422e-05 8.388e-01 
*LOADS
*RC U12598:A2 1.463e-05
*RC mem_addr\[30\] 1.014e-05
*END

*R_NET mem_addr\[29\] 2.119e+00
*DRIVER mem_addr_reg_29_:Q
*CELL DFFX1_HVT
*C2_R1_C1 1.059e+00 4.733e-05 1.059e+00 
*LOADS
*RC U12597:A2 1.145e-05
*RC mem_addr\[29\] 3.160e-05
*END

*R_NET mem_addr\[28\] 1.786e+00
*DRIVER mem_addr_reg_28_:Q
*CELL DFFX1_HVT
*C2_R1_C1 8.931e-01 3.746e-05 8.931e-01 
*LOADS
*RC U12596:A2 1.281e-05
*RC mem_addr\[28\] 1.693e-05
*END

*R_NET mem_addr\[27\] 2.034e+00
*DRIVER mem_addr_reg_27_:Q
*CELL DFFX1_HVT
*C2_R1_C1 1.017e+00 4.481e-05 1.017e+00 
*LOADS
*RC U12595:A2 1.244e-05
*RC mem_addr\[27\] 2.644e-05
*END

*R_NET mem_addr\[26\] 1.606e+00
*DRIVER mem_addr_reg_26_:Q
*CELL DFFX1_HVT
*C2_R1_C1 8.032e-01 3.211e-05 8.032e-01 
*LOADS
*RC U12594:A2 1.082e-05
*RC mem_addr\[26\] 1.276e-05
*END

*R_NET mem_addr\[25\] 1.855e+00
*DRIVER mem_addr_reg_25_:Q
*CELL DFFX1_HVT
*C2_R1_C1 9.275e-01 3.949e-05 9.275e-01 
*LOADS
*RC U12593:A2 1.109e-05
*RC mem_addr\[25\] 2.044e-05
*END

*R_NET mem_addr\[24\] 2.643e+00
*DRIVER mem_addr_reg_24_:Q
*CELL DFFX1_HVT
*C2_R1_C1 1.322e+00 6.290e-05 1.322e+00 
*LOADS
*RC U12592:A2 1.851e-05
*RC mem_addr\[24\] 4.634e-05
*END

*R_NET mem_addr\[23\] 1.783e+00
*DRIVER mem_addr_reg_23_:Q
*CELL DFFX1_HVT
*C2_R1_C1 8.915e-01 3.735e-05 8.915e-01 
*LOADS
*RC U12591:A2 9.888e-06
*RC mem_addr\[23\] 1.635e-05
*END

*R_NET mem_addr\[22\] 1.334e+00
*DRIVER mem_addr_reg_22_:Q
*CELL DFFX1_HVT
*C2_R1_C1 6.669e-01 2.401e-05 6.669e-01 
*LOADS
*RC U12590:A2 1.591e-05
*RC mem_addr\[22\] 4.739e-06
*END

*R_NET mem_addr\[21\] 2.409e+00
*DRIVER mem_addr_reg_21_:Q
*CELL DFFX1_HVT
*C2_R1_C1 1.204e+00 5.593e-05 1.204e+00 
*LOADS
*RC U12589:A2 1.007e-05
*RC mem_addr\[21\] 4.490e-05
*END

*R_NET mem_addr\[20\] 1.362e+00
*DRIVER mem_addr_reg_20_:Q
*CELL DFFX1_HVT
*C2_R1_C1 6.808e-01 2.484e-05 6.808e-01 
*LOADS
*RC U12588:A2 1.114e-05
*RC mem_addr\[20\] 6.070e-06
*END

*R_NET mem_addr\[19\] 2.053e+00
*DRIVER mem_addr_reg_19_:Q
*CELL DFFX1_HVT
*C2_R1_C1 1.026e+00 4.536e-05 1.026e+00 
*LOADS
*RC U12587:A2 9.010e-06
*RC mem_addr\[19\] 3.104e-05
*END

*R_NET mem_addr\[18\] 1.071e+00
*DRIVER mem_addr_reg_18_:Q
*CELL DFFX1_HVT
*C2_R1_C1 5.355e-01 1.621e-05 5.355e-01 
*LOADS
*RC U12586:A2 1.006e-05
*RC mem_addr\[18\] 1.596e-06
*END

*R_NET mem_addr\[17\] 2.444e+00
*DRIVER mem_addr_reg_17_:Q
*CELL DFFX1_HVT
*C2_R1_C1 1.222e+00 5.695e-05 1.222e+00 
*LOADS
*RC U12584:A2 1.215e-05
*RC mem_addr\[17\] 4.638e-05
*END

*R_NET mem_addr\[16\] 1.957e+00
*DRIVER mem_addr_reg_16_:Q
*CELL DFFX1_HVT
*C2_R1_C1 9.783e-01 4.249e-05 9.783e-01 
*LOADS
*RC U12583:A2 5.631e-06
*RC mem_addr\[16\] 2.771e-05
*END

*R_NET mem_addr\[15\] 1.604e+00
*DRIVER mem_addr_reg_15_:Q
*CELL DFFX1_HVT
*C2_R1_C1 8.022e-01 3.205e-05 8.022e-01 
*LOADS
*RC U12582:A2 5.608e-06
*RC mem_addr\[15\] 1.377e-05
*END

*R_NET mem_addr\[14\] 2.560e+00
*DRIVER mem_addr_reg_14_:Q
*CELL DFFX1_HVT
*C2_R1_C1 1.280e+00 6.042e-05 1.280e+00 
*LOADS
*RC U12581:A2 1.289e-05
*RC mem_addr\[14\] 5.156e-05
*END

*R_NET mem_addr\[13\] 2.207e+00
*DRIVER mem_addr_reg_13_:Q
*CELL DFFX1_HVT
*C2_R1_C1 1.104e+00 4.994e-05 1.104e+00 
*LOADS
*RC U12580:A2 1.126e-05
*RC mem_addr\[13\] 3.674e-05
*END

*R_NET mem_addr\[12\] 1.948e+00
*DRIVER mem_addr_reg_12_:Q
*CELL DFFX1_HVT
*C2_R1_C1 9.741e-01 4.223e-05 9.741e-01 
*LOADS
*RC U12579:A2 8.844e-06
*RC mem_addr\[12\] 2.742e-05
*END

*R_NET mem_addr\[11\] 1.931e+00
*DRIVER mem_addr_reg_11_:Q
*CELL DFFX1_HVT
*C2_R1_C1 9.655e-01 4.173e-05 9.655e-01 
*LOADS
*RC U12578:A2 1.048e-05
*RC mem_addr\[11\] 2.052e-05
*END

*R_NET mem_addr\[10\] 1.389e+00
*DRIVER mem_addr_reg_10_:Q
*CELL DFFX1_HVT
*C2_R1_C1 6.947e-01 2.566e-05 6.947e-01 
*LOADS
*RC U12577:A2 1.060e-05
*RC mem_addr\[10\] 7.856e-06
*END

*R_NET mem_addr\[9\] 2.092e+00
*DRIVER mem_addr_reg_9_:Q
*CELL DFFX1_HVT
*C2_R1_C1 1.046e+00 4.653e-05 1.046e+00 
*LOADS
*RC U12576:A2 1.254e-05
*RC mem_addr\[9\] 3.178e-05
*END

*R_NET mem_addr\[8\] 2.736e+00
*DRIVER mem_addr_reg_8_:Q
*CELL DFFX1_HVT
*C2_R1_C1 1.368e+00 6.563e-05 1.368e+00 
*LOADS
*RC U12575:A2 1.425e-05
*RC mem_addr\[8\] 5.715e-05
*END

*R_NET mem_addr\[7\] 2.717e+00
*DRIVER mem_addr_reg_7_:Q
*CELL DFFX1_HVT
*C2_R1_C1 1.359e+00 6.504e-05 1.359e+00 
*LOADS
*RC U12574:A2 5.579e-06
*RC mem_addr\[7\] 5.890e-05
*END

*R_NET mem_addr\[6\] 3.946e+00
*DRIVER mem_addr_reg_6_:Q
*CELL DFFX1_HVT
*C2_R1_C1 1.973e+00 1.015e-04 1.973e+00 
*LOADS
*RC U12573:A2 1.674e-05
*RC mem_addr\[6\] 1.203e-04
*END

*R_NET mem_addr\[5\] 3.204e+00